## SLURM PROLOG ###############################################################
##    Job ID : 160148
##  Job Name : case_H0.01_D0.0083_flat_tilt_T5.0_d5.0_m0.0005
##  Nodelist : node2335
##      CPUs : 1
##  Mem/Node : 4096 MB
## Directory : /oscar/data/dharri15/eaguerov/examples/openfoam/openfoam-test
##   Job Started : Sat Jan 24 04:36:37 PM EST 2026
###############################################################################
Case: case_H0.01_D0.0083_flat_tilt_T5.0_d5.0_m0.0005
Starting fresh simulation...
# commands to be run in OpenFOAM environment
of13  gmshToFoam cylinder.msh
/*---------------------------------------------------------------------------*\
  =========                 |
  \\      /  F ield         | OpenFOAM: The Open Source CFD Toolbox
   \\    /   O peration     | Website:  https://openfoam.org
    \\  /    A nd           | Version:  13
     \\/     M anipulation  |
\*---------------------------------------------------------------------------*/
Build  : 13-cde978a97c93
Exec   : gmshToFoam cylinder.msh
Date   : Jan 24 2026
Time   : 16:36:38
Host   : "node2335.oscar.ccv.brown.edu"
PID    : 3468470
I/O    : uncollated
Case   : //work
nProcs : 1
sigFpe : Enabling floating point exception trapping (FOAM_SIGFPE).
fileModificationChecking : Monitoring run-time modified files using timeStampMaster (fileModificationSkew 10)
allowSystemOperations : Allowing user-supplied system call operations

// * * * * * * * * * * * * * * * * * * * * * * * * * * * * * * * * * * * * * //
Create time

--> FOAM Warning : 
    From function Foam::functionObjectList::functionObjectList(const Foam::Time&, bool)
    in file db/functionObjects/functionObjectList/functionObjectList.C at line 253
    Both "system/functions" and "system/controlDict/functions" found, the latter will be ignored.
Starting to read mesh format at line 2
Read format version 2.2  ascii 0

Starting to read physical names at line 5
Physical names:3
    Surface 1	atmosphere
    Surface 2	walls
    Volume 3	internalMesh

Starting to read points at line 11
Vertices to be read:4085
Vertices read:4085

Starting to read cells at line 4099
Cells to be read:22321

Mapping region 2 to Foam patch 0
Mapping region 1 to Foam patch 1
Mapping region 3 to Foam cellZone 0
Cells:
    total:18819
    hex  :0
    prism:0
    pyr  :0
    tet  :18819

CellZones:
Zone	Size
    0	18819

Skipping tag  at line 26423
Patch 0 gets name walls
Patch 1 gets name atmosphere

Finding faces of patch 0
Finding faces of patch 1

FaceZones:
Zone	Size

Writing zone 0 to cellZone internalMesh and cellSet
End

of13  setFields
/*---------------------------------------------------------------------------*\
  =========                 |
  \\      /  F ield         | OpenFOAM: The Open Source CFD Toolbox
   \\    /   O peration     | Website:  https://openfoam.org
    \\  /    A nd           | Version:  13
     \\/     M anipulation  |
\*---------------------------------------------------------------------------*/
Build  : 13-cde978a97c93
Exec   : setFields
Date   : Jan 24 2026
Time   : 16:36:39
Host   : "node2335.oscar.ccv.brown.edu"
PID    : 3469118
I/O    : uncollated
Case   : //work
nProcs : 1
sigFpe : Enabling floating point exception trapping (FOAM_SIGFPE).
fileModificationChecking : Monitoring run-time modified files using timeStampMaster (fileModificationSkew 10)
allowSystemOperations : Allowing user-supplied system call operations

// * * * * * * * * * * * * * * * * * * * * * * * * * * * * * * * * * * * * * //
Create time

--> FOAM Warning : 
    From function Foam::functionObjectList::functionObjectList(const Foam::Time&, bool)
    in file db/functionObjects/functionObjectList/functionObjectList.C at line 253
    Both "system/functions" and "system/controlDict/functions" found, the latter will be ignored.
Create mesh for time = 0

Reading "setFieldsDict"

Setting field default values
    Setting volScalarField::Internal alpha.water

Setting field zone values
Zone: water
    Setting volScalarField::Internal alpha.water

End

Running in serial...
/*---------------------------------------------------------------------------*\
  =========                 |
  \\      /  F ield         | OpenFOAM: The Open Source CFD Toolbox
   \\    /   O peration     | Website:  https://openfoam.org
    \\  /    A nd           | Version:  13
     \\/     M anipulation  |
\*---------------------------------------------------------------------------*/
Build  : 13-cde978a97c93
Exec   : foamRun
Date   : Jan 24 2026
Time   : 16:36:41
Host   : "node2335.oscar.ccv.brown.edu"
PID    : 3470393
I/O    : uncollated
Case   : //work
nProcs : 1
sigFpe : Enabling floating point exception trapping (FOAM_SIGFPE).
fileModificationChecking : Monitoring run-time modified files using timeStampMaster (fileModificationSkew 10)
allowSystemOperations : Allowing user-supplied system call operations

// * * * * * * * * * * * * * * * * * * * * * * * * * * * * * * * * * * * * * //
Create time

--> FOAM Warning : 
    From function Foam::functionObjectList::functionObjectList(const Foam::Time&, bool)
    in file db/functionObjects/functionObjectList/functionObjectList.C at line 253
    Both "system/functions" and "system/controlDict/functions" found, the latter will be ignored.
Create mesh for time = 0

Selecting fvMeshMover motionSolver
Selecting motion solver: solidBody
Selecting solid-body motion function sixDoFMotion
Selecting solver incompressibleVoF
Selecting viscosity model constant
Selecting viscosity model constant
No MRF models present

Courant Number mean: 0 max: 0
Interface Courant Number mean: 0 max: 0
Selecting turbulence model type laminar
    Selecting laminar stress model Stokes
GAMGPCG:  Solving for pcorr, Initial residual = 0, Final residual = 0, No Iterations 0

PIMPLE: No convergence criteria found


PIMPLE: Operating solver in transient mode with 1 outer corrector
PIMPLE: Operating solver in PISO mode



Starting time loop

Constructing face momentum Uf
Courant Number mean: 0 max: 0
Interface Courant Number mean: 0 max: 0
deltaT = 0.000119962
Time = 0.000119962s

MULES: Solving for alpha.water
MULES: Solving for alpha.water
Phase-1 volume fraction = 0.500257  Min(alpha.water) = -1.65802e-18  Max(alpha.water) = 1
MULES: Solving for alpha.water
MULES: Solving for alpha.water
Phase-1 volume fraction = 0.500257  Min(alpha.water) = -1.65802e-18  Max(alpha.water) = 1
GAMG:  Solving for p_rgh, Initial residual = 1, Final residual = 0.00456455, No Iterations 2
time step continuity errors : sum local = 0.00166185, global = -2.51659e-05
GAMGPCG:  Solving for p_rgh, Initial residual = 0.112112, Final residual = 3.87126e-10, No Iterations 6
time step continuity errors : sum local = 3.71293e-10, global = -1.07943e-11, cumulative = -1.07943e-11
ExecutionTime = 0.479827 s  ClockTime = 1 s

Courant Number mean: 0.180142 max: 19.0576
Interface Courant Number mean: 0 max: 0
deltaT = 6.29452e-06
Time = 0.000126256s

Adaptive stop enabled: watching max(|U|) and interface stillness (alpha.water).
[adaptive_stop] t=0 maxU=0 maxDeltaAlpha=n/a
MULES: Solving for alpha.water
MULES: Solving for alpha.water
Phase-1 volume fraction = 0.500257  Min(alpha.water) = -5.9676e-19  Max(alpha.water) = 1
MULES: Solving for alpha.water
MULES: Solving for alpha.water
Phase-1 volume fraction = 0.500257  Min(alpha.water) = -5.9676e-19  Max(alpha.water) = 1
GAMG:  Solving for p_rgh, Initial residual = 0.470437, Final residual = 0.00122762, No Iterations 3
time step continuity errors : sum local = 5.99628e-06, global = 1.05497e-07
GAMGPCG:  Solving for p_rgh, Initial residual = 0.0888324, Final residual = 4.95251e-10, No Iterations 6
time step continuity errors : sum local = 1.29345e-11, global = -1.38139e-13, cumulative = -1.09324e-11
ExecutionTime = 0.695841 s  ClockTime = 1 s

Courant Number mean: 0.00604168 max: 0.555009
Interface Courant Number mean: 0.000420639 max: 0.279378
deltaT = 7.55339e-06
Time = 0.00013381s

MULES: Solving for alpha.water
MULES: Solving for alpha.water
Phase-1 volume fraction = 0.500257  Min(alpha.water) = -3.44612e-19  Max(alpha.water) = 1
MULES: Solving for alpha.water
MULES: Solving for alpha.water
Phase-1 volume fraction = 0.500257  Min(alpha.water) = -5.78414e-19  Max(alpha.water) = 1
GAMG:  Solving for p_rgh, Initial residual = 0.156899, Final residual = 0.000634418, No Iterations 3
time step continuity errors : sum local = 1.29186e-05, global = 2.59476e-07
GAMGPCG:  Solving for p_rgh, Initial residual = 0.109478, Final residual = 1.41585e-10, No Iterations 7
time step continuity errors : sum local = 2.18665e-12, global = 8.50977e-15, cumulative = -1.09239e-11
ExecutionTime = 0.917513 s  ClockTime = 1 s

Courant Number mean: 0.00654823 max: 0.486426
Interface Courant Number mean: 0.000348768 max: 0.303059
deltaT = 9.06396e-06
Time = 0.000142873s

MULES: Solving for alpha.water
MULES: Solving for alpha.water
Phase-1 volume fraction = 0.500257  Min(alpha.water) = -2.83207e-19  Max(alpha.water) = 1
MULES: Solving for alpha.water
MULES: Solving for alpha.water
Phase-1 volume fraction = 0.500257  Min(alpha.water) = -5.78414e-19  Max(alpha.water) = 1
GAMG:  Solving for p_rgh, Initial residual = 0.076768, Final residual = 0.00032524, No Iterations 3
time step continuity errors : sum local = 5.09224e-06, global = 3.6061e-08
GAMGPCG:  Solving for p_rgh, Initial residual = 0.0504269, Final residual = 1.82694e-10, No Iterations 6
time step continuity errors : sum local = 2.37735e-12, global = -2.55742e-14, cumulative = -1.09495e-11
ExecutionTime = 1.12669 s  ClockTime = 1 s

Courant Number mean: 0.00759814 max: 0.512108
Interface Courant Number mean: 0.000441134 max: 0.31797
deltaT = 1.08766e-05
Time = 0.00015375s

MULES: Solving for alpha.water
MULES: Solving for alpha.water
Phase-1 volume fraction = 0.500257  Min(alpha.water) = -7.43204e-19  Max(alpha.water) = 1
MULES: Solving for alpha.water
MULES: Solving for alpha.water
Phase-1 volume fraction = 0.500257  Min(alpha.water) = -7.46679e-19  Max(alpha.water) = 1
GAMG:  Solving for p_rgh, Initial residual = 0.0377189, Final residual = 0.00027302, No Iterations 2
time step continuity errors : sum local = 4.04405e-06, global = -4.64156e-08
GAMGPCG:  Solving for p_rgh, Initial residual = 0.0179175, Final residual = 4.80429e-10, No Iterations 6
time step continuity errors : sum local = 6.87294e-12, global = 8.19241e-14, cumulative = -1.08676e-11
ExecutionTime = 1.33809 s  ClockTime = 2 s

Courant Number mean: 0.00895488 max: 0.588921
Interface Courant Number mean: 0.000521066 max: 0.316196
deltaT = 1.30516e-05
Time = 0.000166802s

MULES: Solving for alpha.water
MULES: Solving for alpha.water
Phase-1 volume fraction = 0.500257  Min(alpha.water) = -8.14158e-19  Max(alpha.water) = 1
MULES: Solving for alpha.water
MULES: Solving for alpha.water
Phase-1 volume fraction = 0.500257  Min(alpha.water) = -2.57729e-18  Max(alpha.water) = 1
GAMG:  Solving for p_rgh, Initial residual = 0.023812, Final residual = 0.000174554, No Iterations 2
time step continuity errors : sum local = 3.27269e-06, global = 5.44273e-08
GAMGPCG:  Solving for p_rgh, Initial residual = 0.00919297, Final residual = 5.46454e-10, No Iterations 5
time step continuity errors : sum local = 9.98559e-12, global = 1.79699e-13, cumulative = -1.06879e-11
ExecutionTime = 1.54562 s  ClockTime = 2 s

Courant Number mean: 0.0106644 max: 0.693584
Interface Courant Number mean: 0.000643017 max: 0.35004
deltaT = 1.56616e-05
Time = 0.000182463s

MULES: Solving for alpha.water
MULES: Solving for alpha.water
Phase-1 volume fraction = 0.500257  Min(alpha.water) = -9.57076e-19  Max(alpha.water) = 1
MULES: Solving for alpha.water
MULES: Solving for alpha.water
Phase-1 volume fraction = 0.500257  Min(alpha.water) = -1.90551e-18  Max(alpha.water) = 1
GAMG:  Solving for p_rgh, Initial residual = 0.0213177, Final residual = 0.00010428, No Iterations 2
time step continuity errors : sum local = 2.60403e-06, global = 3.09383e-08
GAMGPCG:  Solving for p_rgh, Initial residual = 0.00761131, Final residual = 8.58336e-10, No Iterations 5
time step continuity errors : sum local = 2.09222e-11, global = -6.69762e-13, cumulative = -1.13576e-11
ExecutionTime = 1.75213 s  ClockTime = 2 s

Courant Number mean: 0.0128071 max: 0.813358
Interface Courant Number mean: 0.000811977 max: 0.391844
deltaT = 1.87932e-05
Time = 0.000201256s

MULES: Solving for alpha.water
MULES: Solving for alpha.water
Phase-1 volume fraction = 0.500257  Min(alpha.water) = -4.61277e-18  Max(alpha.water) = 1
MULES: Solving for alpha.water
MULES: Solving for alpha.water
Phase-1 volume fraction = 0.500257  Min(alpha.water) = -5.13348e-19  Max(alpha.water) = 1
GAMG:  Solving for p_rgh, Initial residual = 0.0218017, Final residual = 0.000110548, No Iterations 2
time step continuity errors : sum local = 3.73754e-06, global = 9.25201e-08
GAMGPCG:  Solving for p_rgh, Initial residual = 0.00752592, Final residual = 4.61004e-10, No Iterations 5
time step continuity errors : sum local = 1.51851e-11, global = -1.76908e-13, cumulative = -1.15346e-11
ExecutionTime = 1.95222 s  ClockTime = 2 s

Courant Number mean: 0.0154751 max: 0.952112
Interface Courant Number mean: 0.000975538 max: 0.438502
deltaT = 1.97376e-05
Time = 0.000220994s

MULES: Solving for alpha.water
MULES: Solving for alpha.water
Phase-1 volume fraction = 0.500257  Min(alpha.water) = -2.34352e-18  Max(alpha.water) = 1
MULES: Solving for alpha.water
MULES: Solving for alpha.water
Phase-1 volume fraction = 0.500257  Min(alpha.water) = -3.65489e-18  Max(alpha.water) = 1
GAMG:  Solving for p_rgh, Initial residual = 0.0211071, Final residual = 0.000110873, No Iterations 2
time step continuity errors : sum local = 3.99466e-06, global = 6.40994e-08
GAMGPCG:  Solving for p_rgh, Initial residual = 0.0073416, Final residual = 6.09197e-10, No Iterations 5
time step continuity errors : sum local = 2.14397e-11, global = -1.88681e-12, cumulative = -1.34214e-11
ExecutionTime = 2.15606 s  ClockTime = 2 s

Courant Number mean: 0.016424 max: 0.979439
Interface Courant Number mean: 0.00105447 max: 0.417122
deltaT = 2.01516e-05
Time = 0.000241146s

MULES: Solving for alpha.water
MULES: Solving for alpha.water
Phase-1 volume fraction = 0.500257  Min(alpha.water) = -2.00853e-18  Max(alpha.water) = 1
MULES: Solving for alpha.water
MULES: Solving for alpha.water
Phase-1 volume fraction = 0.500257  Min(alpha.water) = -1.31185e-18  Max(alpha.water) = 1
GAMG:  Solving for p_rgh, Initial residual = 0.0202544, Final residual = 9.04479e-05, No Iterations 2
time step continuity errors : sum local = 3.34147e-06, global = 9.75513e-08
GAMGPCG:  Solving for p_rgh, Initial residual = 0.00696943, Final residual = 4.27244e-10, No Iterations 5
time step continuity errors : sum local = 1.54153e-11, global = -5.18202e-13, cumulative = -1.39396e-11
ExecutionTime = 2.35726 s  ClockTime = 3 s

Courant Number mean: 0.0169902 max: 0.97994
Interface Courant Number mean: 0.0011201 max: 0.41901
deltaT = 2.05631e-05
Time = 0.000261709s

MULES: Solving for alpha.water
MULES: Solving for alpha.water
Phase-1 volume fraction = 0.500257  Min(alpha.water) = -3.08367e-18  Max(alpha.water) = 1
MULES: Solving for alpha.water
MULES: Solving for alpha.water
Phase-1 volume fraction = 0.500257  Min(alpha.water) = -1.1952e-18  Max(alpha.water) = 1
GAMG:  Solving for p_rgh, Initial residual = 0.0203648, Final residual = 9.58194e-05, No Iterations 2
time step continuity errors : sum local = 3.62013e-06, global = 7.06895e-08
GAMGPCG:  Solving for p_rgh, Initial residual = 0.0067584, Final residual = 7.32416e-10, No Iterations 5
time step continuity errors : sum local = 2.70217e-11, global = 1.94504e-13, cumulative = -1.37451e-11
ExecutionTime = 2.55524 s  ClockTime = 3 s

Courant Number mean: 0.0176056 max: 0.976243
Interface Courant Number mean: 0.00112595 max: 0.387815
deltaT = 2.10625e-05
Time = 0.000282771s

MULES: Solving for alpha.water
MULES: Solving for alpha.water
Phase-1 volume fraction = 0.500257  Min(alpha.water) = -3.16373e-18  Max(alpha.water) = 1
MULES: Solving for alpha.water
MULES: Solving for alpha.water
Phase-1 volume fraction = 0.500257  Min(alpha.water) = -2.12176e-18  Max(alpha.water) = 1
GAMG:  Solving for p_rgh, Initial residual = 0.0229701, Final residual = 0.000172897, No Iterations 2
time step continuity errors : sum local = 6.73278e-06, global = 1.28624e-07
GAMGPCG:  Solving for p_rgh, Initial residual = 0.00694445, Final residual = 3.9389e-10, No Iterations 5
time step continuity errors : sum local = 1.49916e-11, global = -4.93463e-13, cumulative = -1.42385e-11
ExecutionTime = 2.75177 s  ClockTime = 3 s

Courant Number mean: 0.0183044 max: 1.08338
Interface Courant Number mean: 0.00112768 max: 0.365022
deltaT = 1.94408e-05
Time = 0.000302212s

MULES: Solving for alpha.water
MULES: Solving for alpha.water
Phase-1 volume fraction = 0.500257  Min(alpha.water) = -8.57905e-19  Max(alpha.water) = 1
MULES: Solving for alpha.water
MULES: Solving for alpha.water
Phase-1 volume fraction = 0.500257  Min(alpha.water) = -1.09699e-18  Max(alpha.water) = 1
GAMG:  Solving for p_rgh, Initial residual = 0.0192871, Final residual = 0.000102582, No Iterations 2
time step continuity errors : sum local = 3.3911e-06, global = 4.36926e-08
GAMGPCG:  Solving for p_rgh, Initial residual = 0.00605398, Final residual = 7.88584e-10, No Iterations 5
time step continuity errors : sum local = 2.55218e-11, global = 1.61235e-13, cumulative = -1.40773e-11
ExecutionTime = 2.95355 s  ClockTime = 3 s

Courant Number mean: 0.0170843 max: 1.09948
Interface Courant Number mean: 0.00103867 max: 0.332972
deltaT = 1.76815e-05
Time = 0.000319893s

MULES: Solving for alpha.water
MULES: Solving for alpha.water
Phase-1 volume fraction = 0.500257  Min(alpha.water) = -1.00508e-18  Max(alpha.water) = 1
MULES: Solving for alpha.water
MULES: Solving for alpha.water
Phase-1 volume fraction = 0.500257  Min(alpha.water) = -7.48852e-19  Max(alpha.water) = 1
GAMG:  Solving for p_rgh, Initial residual = 0.0176855, Final residual = 0.000130882, No Iterations 2
time step continuity errors : sum local = 3.58365e-06, global = 6.02902e-08
GAMGPCG:  Solving for p_rgh, Initial residual = 0.00600541, Final residual = 5.40633e-10, No Iterations 5
time step continuity errors : sum local = 1.4547e-11, global = -8.24409e-13, cumulative = -1.49017e-11
ExecutionTime = 3.16002 s  ClockTime = 3 s

Courant Number mean: 0.0156221 max: 1.0655
Interface Courant Number mean: 0.000962121 max: 0.300493
deltaT = 1.65945e-05
Time = 0.000336488s

MULES: Solving for alpha.water
MULES: Solving for alpha.water
Phase-1 volume fraction = 0.500257  Min(alpha.water) = -1.07455e-18  Max(alpha.water) = 1
MULES: Solving for alpha.water
MULES: Solving for alpha.water
Phase-1 volume fraction = 0.500257  Min(alpha.water) = -8.43225e-19  Max(alpha.water) = 1
GAMG:  Solving for p_rgh, Initial residual = 0.0151188, Final residual = 9.68194e-05, No Iterations 2
time step continuity errors : sum local = 2.33223e-06, global = 4.26928e-09
GAMGPCG:  Solving for p_rgh, Initial residual = 0.00532616, Final residual = 2.36332e-10, No Iterations 5
time step continuity errors : sum local = 5.59969e-12, global = 1.94991e-13, cumulative = -1.47067e-11
ExecutionTime = 3.36306 s  ClockTime = 4 s

Courant Number mean: 0.0147216 max: 1.0503
Interface Courant Number mean: 0.000901475 max: 0.280278
deltaT = 1.57995e-05
Time = 0.000352287s

MULES: Solving for alpha.water
MULES: Solving for alpha.water
Phase-1 volume fraction = 0.500257  Min(alpha.water) = -5.5106e-19  Max(alpha.water) = 1
MULES: Solving for alpha.water
MULES: Solving for alpha.water
Phase-1 volume fraction = 0.500257  Min(alpha.water) = -1.12417e-18  Max(alpha.water) = 1
GAMG:  Solving for p_rgh, Initial residual = 0.0146945, Final residual = 6.02386e-05, No Iterations 2
time step continuity errors : sum local = 1.308e-06, global = 3.69179e-08
GAMGPCG:  Solving for p_rgh, Initial residual = 0.00465368, Final residual = 3.14721e-10, No Iterations 5
time step continuity errors : sum local = 6.72742e-12, global = -2.64047e-14, cumulative = -1.47331e-11
ExecutionTime = 3.57087 s  ClockTime = 4 s

Courant Number mean: 0.0140646 max: 1.03659
Interface Courant Number mean: 0.000873466 max: 0.266333
deltaT = 1.5241e-05
Time = 0.000367528s

MULES: Solving for alpha.water
MULES: Solving for alpha.water
Phase-1 volume fraction = 0.500257  Min(alpha.water) = -1.13021e-18  Max(alpha.water) = 1
MULES: Solving for alpha.water
MULES: Solving for alpha.water
Phase-1 volume fraction = 0.500257  Min(alpha.water) = -5.64792e-19  Max(alpha.water) = 1
GAMG:  Solving for p_rgh, Initial residual = 0.0140657, Final residual = 9.41595e-05, No Iterations 2
time step continuity errors : sum local = 1.89029e-06, global = 1.08633e-08
GAMGPCG:  Solving for p_rgh, Initial residual = 0.00479721, Final residual = 6.0489e-10, No Iterations 5
time step continuity errors : sum local = 1.20105e-11, global = 2.69825e-13, cumulative = -1.44633e-11
ExecutionTime = 3.77432 s  ClockTime = 4 s

Courant Number mean: 0.0135966 max: 1.02206
Interface Courant Number mean: 0.000838494 max: 0.256589
deltaT = 1.49114e-05
Time = 0.00038244s

MULES: Solving for alpha.water
MULES: Solving for alpha.water
Phase-1 volume fraction = 0.500257  Min(alpha.water) = -1.37341e-18  Max(alpha.water) = 1
MULES: Solving for alpha.water
MULES: Solving for alpha.water
Phase-1 volume fraction = 0.500257  Min(alpha.water) = -9.6235e-19  Max(alpha.water) = 1
GAMG:  Solving for p_rgh, Initial residual = 0.0132051, Final residual = 8.30997e-05, No Iterations 2
time step continuity errors : sum local = 1.58897e-06, global = 2.27388e-08
GAMGPCG:  Solving for p_rgh, Initial residual = 0.00479609, Final residual = 3.91748e-10, No Iterations 5
time step continuity errors : sum local = 7.39423e-12, global = -2.68328e-13, cumulative = -1.47316e-11
ExecutionTime = 3.97474 s  ClockTime = 4 s

Courant Number mean: 0.01334 max: 1.01053
Interface Courant Number mean: 0.000818822 max: 0.250693
deltaT = 1.47554e-05
Time = 0.000397195s

MULES: Solving for alpha.water
MULES: Solving for alpha.water
Phase-1 volume fraction = 0.500257  Min(alpha.water) = -6.83684e-18  Max(alpha.water) = 1
MULES: Solving for alpha.water
MULES: Solving for alpha.water
Phase-1 volume fraction = 0.500257  Min(alpha.water) = -1.72464e-18  Max(alpha.water) = 1
GAMG:  Solving for p_rgh, Initial residual = 0.0149325, Final residual = 0.000108114, No Iterations 2
time step continuity errors : sum local = 2.00089e-06, global = -1.82569e-09
GAMGPCG:  Solving for p_rgh, Initial residual = 0.00488986, Final residual = 3.35029e-10, No Iterations 5
time step continuity errors : sum local = 6.13139e-12, global = -1.5385e-13, cumulative = -1.48855e-11
ExecutionTime = 4.18166 s  ClockTime = 4 s

Courant Number mean: 0.0132263 max: 1.00084
Interface Courant Number mean: 0.000809611 max: 0.248166
deltaT = 1.47424e-05
Time = 0.000411938s

MULES: Solving for alpha.water
MULES: Solving for alpha.water
Phase-1 volume fraction = 0.500257  Min(alpha.water) = -7.58503e-19  Max(alpha.water) = 1
MULES: Solving for alpha.water
MULES: Solving for alpha.water
Phase-1 volume fraction = 0.500257  Min(alpha.water) = -1.04955e-18  Max(alpha.water) = 1
GAMG:  Solving for p_rgh, Initial residual = 0.0145443, Final residual = 8.73825e-05, No Iterations 2
time step continuity errors : sum local = 1.59695e-06, global = 3.55604e-08
GAMGPCG:  Solving for p_rgh, Initial residual = 0.00460308, Final residual = 2.5363e-10, No Iterations 5
time step continuity errors : sum local = 4.57534e-12, global = 1.39917e-13, cumulative = -1.47455e-11
ExecutionTime = 4.38167 s  ClockTime = 5 s

Courant Number mean: 0.013241 max: 0.992993
Interface Courant Number mean: 0.000799184 max: 0.249371
deltaT = 1.48458e-05
Time = 0.000426783s

MULES: Solving for alpha.water
MULES: Solving for alpha.water
Phase-1 volume fraction = 0.500257  Min(alpha.water) = -3.56908e-18  Max(alpha.water) = 1
MULES: Solving for alpha.water
MULES: Solving for alpha.water
Phase-1 volume fraction = 0.500257  Min(alpha.water) = -9.66157e-19  Max(alpha.water) = 1
GAMG:  Solving for p_rgh, Initial residual = 0.014898, Final residual = 7.5292e-05, No Iterations 2
time step continuity errors : sum local = 1.38111e-06, global = 1.3148e-08
GAMGPCG:  Solving for p_rgh, Initial residual = 0.00465034, Final residual = 2.97667e-10, No Iterations 5
time step continuity errors : sum local = 5.41099e-12, global = -8.37458e-14, cumulative = -1.48293e-11
ExecutionTime = 4.58671 s  ClockTime = 5 s

Courant Number mean: 0.0133577 max: 0.98876
Interface Courant Number mean: 0.00080972 max: 0.253548
deltaT = 1.50137e-05
Time = 0.000441797s

MULES: Solving for alpha.water
MULES: Solving for alpha.water
Phase-1 volume fraction = 0.500257  Min(alpha.water) = -1.74743e-18  Max(alpha.water) = 1
MULES: Solving for alpha.water
MULES: Solving for alpha.water
Phase-1 volume fraction = 0.500257  Min(alpha.water) = -1.27291e-18  Max(alpha.water) = 1
GAMG:  Solving for p_rgh, Initial residual = 0.0121084, Final residual = 5.27531e-05, No Iterations 2
time step continuity errors : sum local = 9.87948e-07, global = 2.60547e-08
GAMGPCG:  Solving for p_rgh, Initial residual = 0.00394517, Final residual = 2.09822e-10, No Iterations 5
time step continuity errors : sum local = 3.89705e-12, global = -1.80436e-13, cumulative = -1.50097e-11
ExecutionTime = 4.79288 s  ClockTime = 5 s

Courant Number mean: 0.013549 max: 0.982814
Interface Courant Number mean: 0.000825628 max: 0.263814
deltaT = 1.52756e-05
Time = 0.000457073s

MULES: Solving for alpha.water
MULES: Solving for alpha.water
Phase-1 volume fraction = 0.500257  Min(alpha.water) = -2.02417e-18  Max(alpha.water) = 1
MULES: Solving for alpha.water
MULES: Solving for alpha.water
Phase-1 volume fraction = 0.500257  Min(alpha.water) = -1.58748e-18  Max(alpha.water) = 1
GAMG:  Solving for p_rgh, Initial residual = 0.0111297, Final residual = 4.99235e-05, No Iterations 2
time step continuity errors : sum local = 9.58448e-07, global = 2.57679e-09
GAMGPCG:  Solving for p_rgh, Initial residual = 0.00386202, Final residual = 3.46749e-10, No Iterations 5
time step continuity errors : sum local = 6.59321e-12, global = -5.1665e-13, cumulative = -1.55264e-11
ExecutionTime = 5.00076 s  ClockTime = 5 s

Courant Number mean: 0.0138096 max: 0.980462
Interface Courant Number mean: 0.000841959 max: 0.279053
deltaT = 1.55799e-05
Time = 0.000472653s

MULES: Solving for alpha.water
MULES: Solving for alpha.water
Phase-1 volume fraction = 0.500257  Min(alpha.water) = -6.32424e-19  Max(alpha.water) = 1
MULES: Solving for alpha.water
MULES: Solving for alpha.water
Phase-1 volume fraction = 0.500257  Min(alpha.water) = -2.34266e-18  Max(alpha.water) = 1
GAMG:  Solving for p_rgh, Initial residual = 0.0120813, Final residual = 8.86873e-05, No Iterations 2
time step continuity errors : sum local = 1.74824e-06, global = 3.98695e-08
GAMGPCG:  Solving for p_rgh, Initial residual = 0.00469173, Final residual = 2.99556e-10, No Iterations 5
time step continuity errors : sum local = 5.85095e-12, global = -1.62179e-13, cumulative = -1.56886e-11
ExecutionTime = 5.20496 s  ClockTime = 5 s

Courant Number mean: 0.0140959 max: 0.978329
Interface Courant Number mean: 0.000867644 max: 0.295017
deltaT = 1.59249e-05
Time = 0.000488578s

MULES: Solving for alpha.water
MULES: Solving for alpha.water
Phase-1 volume fraction = 0.500257  Min(alpha.water) = -1.03643e-18  Max(alpha.water) = 1
MULES: Solving for alpha.water
MULES: Solving for alpha.water
Phase-1 volume fraction = 0.500257  Min(alpha.water) = -1.2892e-18  Max(alpha.water) = 1
GAMG:  Solving for p_rgh, Initial residual = 0.0116171, Final residual = 5.70976e-05, No Iterations 2
time step continuity errors : sum local = 1.16086e-06, global = -5.05846e-09
GAMGPCG:  Solving for p_rgh, Initial residual = 0.00382622, Final residual = 3.90396e-10, No Iterations 5
time step continuity errors : sum local = 7.87443e-12, global = -5.20896e-14, cumulative = -1.57407e-11
ExecutionTime = 5.40902 s  ClockTime = 6 s

Courant Number mean: 0.0144412 max: 0.974655
Interface Courant Number mean: 0.000890449 max: 0.312117
deltaT = 1.63389e-05
Time = 0.000504916s

MULES: Solving for alpha.water
MULES: Solving for alpha.water
Phase-1 volume fraction = 0.500257  Min(alpha.water) = -3.35451e-18  Max(alpha.water) = 1
MULES: Solving for alpha.water
MULES: Solving for alpha.water
Phase-1 volume fraction = 0.500257  Min(alpha.water) = -1.32002e-18  Max(alpha.water) = 1
GAMG:  Solving for p_rgh, Initial residual = 0.0130244, Final residual = 7.32531e-05, No Iterations 2
time step continuity errors : sum local = 1.54783e-06, global = -5.15469e-09
GAMGPCG:  Solving for p_rgh, Initial residual = 0.00439087, Final residual = 2.27665e-10, No Iterations 5
time step continuity errors : sum local = 4.77206e-12, global = 4.50525e-14, cumulative = -1.56956e-11
ExecutionTime = 5.61466 s  ClockTime = 6 s

Courant Number mean: 0.0148569 max: 0.971465
Interface Courant Number mean: 0.000937189 max: 0.336329
deltaT = 1.6818e-05
Time = 0.000521734s

MULES: Solving for alpha.water
MULES: Solving for alpha.water
Phase-1 volume fraction = 0.500257  Min(alpha.water) = -7.12428e-19  Max(alpha.water) = 1
MULES: Solving for alpha.water
MULES: Solving for alpha.water
Phase-1 volume fraction = 0.500257  Min(alpha.water) = -8.98037e-19  Max(alpha.water) = 1
GAMG:  Solving for p_rgh, Initial residual = 0.0119725, Final residual = 6.82028e-05, No Iterations 2
time step continuity errors : sum local = 1.50976e-06, global = -8.24292e-09
GAMGPCG:  Solving for p_rgh, Initial residual = 0.00414238, Final residual = 2.76111e-10, No Iterations 5
time step continuity errors : sum local = 6.07123e-12, global = -2.51025e-13, cumulative = -1.59466e-11
ExecutionTime = 5.81516 s  ClockTime = 6 s

Courant Number mean: 0.0153348 max: 0.964832
Interface Courant Number mean: 0.00096497 max: 0.353712
deltaT = 1.74302e-05
Time = 0.000539165s

MULES: Solving for alpha.water
MULES: Solving for alpha.water
Phase-1 volume fraction = 0.500257  Min(alpha.water) = -7.72592e-19  Max(alpha.water) = 1
MULES: Solving for alpha.water
MULES: Solving for alpha.water
Phase-1 volume fraction = 0.500257  Min(alpha.water) = -1.52443e-18  Max(alpha.water) = 1
GAMG:  Solving for p_rgh, Initial residual = 0.0126312, Final residual = 7.16155e-05, No Iterations 2
time step continuity errors : sum local = 1.68205e-06, global = -8.96813e-09
GAMGPCG:  Solving for p_rgh, Initial residual = 0.00428054, Final residual = 2.60258e-10, No Iterations 5
time step continuity errors : sum local = 6.07841e-12, global = 1.277e-14, cumulative = -1.59339e-11
ExecutionTime = 6.01668 s  ClockTime = 6 s

Courant Number mean: 0.0159404 max: 0.959143
Interface Courant Number mean: 0.00100678 max: 0.363056
deltaT = 1.81717e-05
Time = 0.000557336s

MULES: Solving for alpha.water
MULES: Solving for alpha.water
Phase-1 volume fraction = 0.500257  Min(alpha.water) = -1.38178e-18  Max(alpha.water) = 1
MULES: Solving for alpha.water
MULES: Solving for alpha.water
Phase-1 volume fraction = 0.500257  Min(alpha.water) = -1.21267e-18  Max(alpha.water) = 1
GAMG:  Solving for p_rgh, Initial residual = 0.0117376, Final residual = 6.41356e-05, No Iterations 2
time step continuity errors : sum local = 1.61496e-06, global = -2.41979e-09
GAMGPCG:  Solving for p_rgh, Initial residual = 0.00400953, Final residual = 4.33348e-10, No Iterations 5
time step continuity errors : sum local = 1.08479e-11, global = 3.10105e-13, cumulative = -1.56237e-11
ExecutionTime = 6.2196 s  ClockTime = 7 s

Courant Number mean: 0.0166452 max: 0.954846
Interface Courant Number mean: 0.00105235 max: 0.346045
deltaT = 1.90298e-05
Time = 0.000576366s

MULES: Solving for alpha.water
MULES: Solving for alpha.water
Phase-1 volume fraction = 0.500257  Min(alpha.water) = -2.055e-18  Max(alpha.water) = 1
MULES: Solving for alpha.water
MULES: Solving for alpha.water
Phase-1 volume fraction = 0.500257  Min(alpha.water) = -5.30137e-19  Max(alpha.water) = 1
GAMG:  Solving for p_rgh, Initial residual = 0.0123477, Final residual = 7.60902e-05, No Iterations 2
time step continuity errors : sum local = 2.06524e-06, global = 2.75864e-08
GAMGPCG:  Solving for p_rgh, Initial residual = 0.0040224, Final residual = 3.91021e-10, No Iterations 5
time step continuity errors : sum local = 1.05544e-11, global = -5.1961e-13, cumulative = -1.61434e-11
ExecutionTime = 6.41869 s  ClockTime = 7 s

Courant Number mean: 0.0174404 max: 0.951013
Interface Courant Number mean: 0.00112801 max: 0.356142
deltaT = 2.00099e-05
Time = 0.000596376s

MULES: Solving for alpha.water
MULES: Solving for alpha.water
Phase-1 volume fraction = 0.500257  Min(alpha.water) = -7.71273e-19  Max(alpha.water) = 1
MULES: Solving for alpha.water
MULES: Solving for alpha.water
Phase-1 volume fraction = 0.500257  Min(alpha.water) = -3.71934e-18  Max(alpha.water) = 1
GAMG:  Solving for p_rgh, Initial residual = 0.0110159, Final residual = 6.77819e-05, No Iterations 2
time step continuity errors : sum local = 2.002e-06, global = -1.45222e-08
GAMGPCG:  Solving for p_rgh, Initial residual = 0.00363521, Final residual = 3.42819e-10, No Iterations 5
time step continuity errors : sum local = 1.00611e-11, global = 3.82374e-13, cumulative = -1.5761e-11
ExecutionTime = 6.62194 s  ClockTime = 7 s

Courant Number mean: 0.0183345 max: 0.945628
Interface Courant Number mean: 0.00119247 max: 0.368162
deltaT = 2.11592e-05
Time = 0.000617535s

MULES: Solving for alpha.water
MULES: Solving for alpha.water
Phase-1 volume fraction = 0.500257  Min(alpha.water) = -1.02385e-18  Max(alpha.water) = 1
MULES: Solving for alpha.water
MULES: Solving for alpha.water
Phase-1 volume fraction = 0.500257  Min(alpha.water) = -6.40927e-19  Max(alpha.water) = 1
GAMG:  Solving for p_rgh, Initial residual = 0.0116338, Final residual = 5.12027e-05, No Iterations 2
time step continuity errors : sum local = 1.66399e-06, global = -8.04584e-09
GAMGPCG:  Solving for p_rgh, Initial residual = 0.00369475, Final residual = 1.99941e-10, No Iterations 5
time step continuity errors : sum local = 6.46899e-12, global = 4.6053e-13, cumulative = -1.53005e-11
ExecutionTime = 6.82309 s  ClockTime = 7 s

Courant Number mean: 0.0194139 max: 0.941218
Interface Courant Number mean: 0.00125146 max: 0.382242
deltaT = 2.2479e-05
Time = 0.000640014s

MULES: Solving for alpha.water
MULES: Solving for alpha.water
Phase-1 volume fraction = 0.500257  Min(alpha.water) = -1.16668e-18  Max(alpha.water) = 1
MULES: Solving for alpha.water
MULES: Solving for alpha.water
Phase-1 volume fraction = 0.500257  Min(alpha.water) = -1.1235e-18  Max(alpha.water) = 1
GAMG:  Solving for p_rgh, Initial residual = 0.0125766, Final residual = 6.87871e-05, No Iterations 2
time step continuity errors : sum local = 2.46889e-06, global = -1.15718e-09
GAMGPCG:  Solving for p_rgh, Initial residual = 0.00423321, Final residual = 5.33588e-10, No Iterations 5
time step continuity errors : sum local = 1.90263e-11, global = 1.00264e-13, cumulative = -1.52002e-11
ExecutionTime = 7.0237 s  ClockTime = 7 s

Courant Number mean: 0.0206186 max: 0.936276
Interface Courant Number mean: 0.00133972 max: 0.396469
deltaT = 2.40069e-05
Time = 0.000664021s

MULES: Solving for alpha.water
MULES: Solving for alpha.water
Phase-1 volume fraction = 0.500257  Min(alpha.water) = -1.61921e-18  Max(alpha.water) = 1
MULES: Solving for alpha.water
MULES: Solving for alpha.water
Phase-1 volume fraction = 0.500257  Min(alpha.water) = -1.10959e-18  Max(alpha.water) = 1
GAMG:  Solving for p_rgh, Initial residual = 0.0132471, Final residual = 7.24111e-05, No Iterations 2
time step continuity errors : sum local = 2.916e-06, global = -3.98045e-08
GAMGPCG:  Solving for p_rgh, Initial residual = 0.00449496, Final residual = 2.65816e-10, No Iterations 5
time step continuity errors : sum local = 1.06936e-11, global = -2.40335e-13, cumulative = -1.54405e-11
ExecutionTime = 7.22869 s  ClockTime = 8 s

Courant Number mean: 0.0219901 max: 0.930546
Interface Courant Number mean: 0.00144344 max: 0.402049
deltaT = 2.57978e-05
Time = 0.000689819s

MULES: Solving for alpha.water
MULES: Solving for alpha.water
Phase-1 volume fraction = 0.500257  Min(alpha.water) = -1.51544e-18  Max(alpha.water) = 1
MULES: Solving for alpha.water
MULES: Solving for alpha.water
Phase-1 volume fraction = 0.500257  Min(alpha.water) = -7.13875e-19  Max(alpha.water) = 1
GAMG:  Solving for p_rgh, Initial residual = 0.0140423, Final residual = 8.35698e-05, No Iterations 2
time step continuity errors : sum local = 3.81373e-06, global = -2.989e-08
GAMGPCG:  Solving for p_rgh, Initial residual = 0.00478223, Final residual = 4.04725e-10, No Iterations 5
time step continuity errors : sum local = 1.8369e-11, global = -2.47286e-13, cumulative = -1.56878e-11
ExecutionTime = 7.43101 s  ClockTime = 8 s

Courant Number mean: 0.0235822 max: 0.937661
Interface Courant Number mean: 0.00160144 max: 0.505908
deltaT = 2.54944e-05
Time = 0.000715314s

MULES: Solving for alpha.water
MULES: Solving for alpha.water
Phase-1 volume fraction = 0.500257  Min(alpha.water) = -1.62669e-18  Max(alpha.water) = 1
MULES: Solving for alpha.water
MULES: Solving for alpha.water
Phase-1 volume fraction = 0.500257  Min(alpha.water) = -1.42601e-18  Max(alpha.water) = 1
GAMG:  Solving for p_rgh, Initial residual = 0.013707, Final residual = 9.61498e-05, No Iterations 2
time step continuity errors : sum local = 4.22474e-06, global = -3.25491e-08
GAMGPCG:  Solving for p_rgh, Initial residual = 0.00471081, Final residual = 1.27978e-10, No Iterations 5
time step continuity errors : sum local = 5.59747e-12, global = 1.93864e-13, cumulative = -1.54939e-11
ExecutionTime = 7.63495 s  ClockTime = 8 s

Courant Number mean: 0.0232572 max: 0.898849
Interface Courant Number mean: 0.00158873 max: 0.484031
deltaT = 2.63347e-05
Time = 0.000741648s

MULES: Solving for alpha.water
MULES: Solving for alpha.water
Phase-1 volume fraction = 0.500257  Min(alpha.water) = -1.40984e-18  Max(alpha.water) = 1
MULES: Solving for alpha.water
MULES: Solving for alpha.water
Phase-1 volume fraction = 0.500257  Min(alpha.water) = -1.55076e-18  Max(alpha.water) = 1
GAMG:  Solving for p_rgh, Initial residual = 0.0131836, Final residual = 6.60661e-05, No Iterations 2
time step continuity errors : sum local = 3.03885e-06, global = -1.56457e-08
GAMGPCG:  Solving for p_rgh, Initial residual = 0.00488904, Final residual = 4.84996e-10, No Iterations 5
time step continuity errors : sum local = 2.2124e-11, global = 6.81988e-13, cumulative = -1.4812e-11
ExecutionTime = 7.83588 s  ClockTime = 8 s

Courant Number mean: 0.0239536 max: 0.905782
Interface Courant Number mean: 0.0016302 max: 0.485074
deltaT = 2.71435e-05
Time = 0.000768792s

MULES: Solving for alpha.water
MULES: Solving for alpha.water
Phase-1 volume fraction = 0.500257  Min(alpha.water) = -1.60348e-18  Max(alpha.water) = 1
MULES: Solving for alpha.water
MULES: Solving for alpha.water
Phase-1 volume fraction = 0.500257  Min(alpha.water) = -2.64155e-18  Max(alpha.water) = 1
GAMG:  Solving for p_rgh, Initial residual = 0.0134054, Final residual = 7.84822e-05, No Iterations 2
time step continuity errors : sum local = 3.74339e-06, global = -2.39789e-09
GAMGPCG:  Solving for p_rgh, Initial residual = 0.00506873, Final residual = 3.23257e-10, No Iterations 5
time step continuity errors : sum local = 1.53368e-11, global = -2.8733e-13, cumulative = -1.50993e-11
ExecutionTime = 8.04082 s  ClockTime = 8 s

Courant Number mean: 0.0245528 max: 0.902237
Interface Courant Number mean: 0.0016622 max: 0.486116
deltaT = 2.79157e-05
Time = 0.000796707s

MULES: Solving for alpha.water
MULES: Solving for alpha.water
Phase-1 volume fraction = 0.500257  Min(alpha.water) = -1.53017e-18  Max(alpha.water) = 1
MULES: Solving for alpha.water
MULES: Solving for alpha.water
Phase-1 volume fraction = 0.500257  Min(alpha.water) = -3.62798e-18  Max(alpha.water) = 1
GAMG:  Solving for p_rgh, Initial residual = 0.0133955, Final residual = 7.42975e-05, No Iterations 2
time step continuity errors : sum local = 3.67142e-06, global = 1.77634e-08
GAMGPCG:  Solving for p_rgh, Initial residual = 0.0048385, Final residual = 4.52146e-10, No Iterations 5
time step continuity errors : sum local = 2.22813e-11, global = -3.17252e-13, cumulative = -1.54165e-11
ExecutionTime = 8.24099 s  ClockTime = 9 s

Courant Number mean: 0.0251541 max: 0.903465
Interface Courant Number mean: 0.00173351 max: 0.487135
deltaT = 2.86506e-05
Time = 0.000825358s

MULES: Solving for alpha.water
MULES: Solving for alpha.water
Phase-1 volume fraction = 0.500257  Min(alpha.water) = -5.54134e-18  Max(alpha.water) = 1
MULES: Solving for alpha.water
MULES: Solving for alpha.water
Phase-1 volume fraction = 0.500257  Min(alpha.water) = -1.91382e-18  Max(alpha.water) = 1
GAMG:  Solving for p_rgh, Initial residual = 0.0126235, Final residual = 5.9588e-05, No Iterations 2
time step continuity errors : sum local = 3.06584e-06, global = -3.60404e-08
GAMGPCG:  Solving for p_rgh, Initial residual = 0.00446927, Final residual = 1.85755e-10, No Iterations 5
time step continuity errors : sum local = 9.5382e-12, global = 1.21355e-13, cumulative = -1.52952e-11
ExecutionTime = 8.4474 s  ClockTime = 9 s

Courant Number mean: 0.0257303 max: 0.907131
Interface Courant Number mean: 0.00175532 max: 0.488698
deltaT = 2.93112e-05
Time = 0.000854669s

MULES: Solving for alpha.water
MULES: Solving for alpha.water
Phase-1 volume fraction = 0.500257  Min(alpha.water) = -4.43324e-18  Max(alpha.water) = 1
MULES: Solving for alpha.water
MULES: Solving for alpha.water
Phase-1 volume fraction = 0.500257  Min(alpha.water) = -1.69407e-18  Max(alpha.water) = 1
GAMG:  Solving for p_rgh, Initial residual = 0.0122894, Final residual = 6.62027e-05, No Iterations 2
time step continuity errors : sum local = 3.55369e-06, global = -1.13441e-08
GAMGPCG:  Solving for p_rgh, Initial residual = 0.00445213, Final residual = 6.53577e-10, No Iterations 5
time step continuity errors : sum local = 3.50264e-11, global = 3.58561e-13, cumulative = -1.49366e-11
ExecutionTime = 8.64542 s  ClockTime = 9 s

Courant Number mean: 0.0262424 max: 0.905499
Interface Courant Number mean: 0.00180041 max: 0.488972
deltaT = 2.99706e-05
Time = 0.00088464s

MULES: Solving for alpha.water
MULES: Solving for alpha.water
Phase-1 volume fraction = 0.500257  Min(alpha.water) = -1.59732e-18  Max(alpha.water) = 1
MULES: Solving for alpha.water
MULES: Solving for alpha.water
Phase-1 volume fraction = 0.500257  Min(alpha.water) = -3.42552e-18  Max(alpha.water) = 1
GAMG:  Solving for p_rgh, Initial residual = 0.0129699, Final residual = 7.04507e-05, No Iterations 2
time step continuity errors : sum local = 3.92979e-06, global = -6.98334e-08
GAMGPCG:  Solving for p_rgh, Initial residual = 0.00465226, Final residual = 2.69733e-10, No Iterations 5
time step continuity errors : sum local = 1.49986e-11, global = 6.37086e-13, cumulative = -1.42995e-11
ExecutionTime = 8.85238 s  ClockTime = 9 s

Courant Number mean: 0.0267863 max: 0.900249
Interface Courant Number mean: 0.00189567 max: 0.489865
deltaT = 3.05888e-05
Time = 0.000915229s

MULES: Solving for alpha.water
MULES: Solving for alpha.water
Phase-1 volume fraction = 0.500257  Min(alpha.water) = -1.24378e-18  Max(alpha.water) = 1
MULES: Solving for alpha.water
MULES: Solving for alpha.water
Phase-1 volume fraction = 0.500257  Min(alpha.water) = -9.78079e-19  Max(alpha.water) = 1
GAMG:  Solving for p_rgh, Initial residual = 0.0127938, Final residual = 6.79991e-05, No Iterations 2
time step continuity errors : sum local = 3.91638e-06, global = 6.23341e-09
GAMGPCG:  Solving for p_rgh, Initial residual = 0.00451728, Final residual = 3.70701e-10, No Iterations 5
time step continuity errors : sum local = 2.13657e-11, global = 1.00381e-12, cumulative = -1.32957e-11
ExecutionTime = 9.05516 s  ClockTime = 9 s

Courant Number mean: 0.0273251 max: 0.886627
Interface Courant Number mean: 0.00198463 max: 0.491131
deltaT = 3.11395e-05
Time = 0.000946368s

MULES: Solving for alpha.water
MULES: Solving for alpha.water
Phase-1 volume fraction = 0.500257  Min(alpha.water) = -1.40131e-18  Max(alpha.water) = 1
MULES: Solving for alpha.water
MULES: Solving for alpha.water
Phase-1 volume fraction = 0.500257  Min(alpha.water) = -1.5277e-18  Max(alpha.water) = 1
GAMG:  Solving for p_rgh, Initial residual = 0.0114252, Final residual = 5.00844e-05, No Iterations 2
time step continuity errors : sum local = 2.97451e-06, global = -6.373e-08
GAMGPCG:  Solving for p_rgh, Initial residual = 0.00414315, Final residual = 2.85452e-10, No Iterations 5
time step continuity errors : sum local = 1.69381e-11, global = -4.92381e-13, cumulative = -1.37881e-11
ExecutionTime = 9.26319 s  ClockTime = 10 s

Courant Number mean: 0.0278064 max: 0.881251
Interface Courant Number mean: 0.00200647 max: 0.492667
deltaT = 3.16018e-05
Time = 0.00097797s

MULES: Solving for alpha.water
MULES: Solving for alpha.water
Phase-1 volume fraction = 0.500257  Min(alpha.water) = -9.41068e-19  Max(alpha.water) = 1
MULES: Solving for alpha.water
MULES: Solving for alpha.water
Phase-1 volume fraction = 0.500257  Min(alpha.water) = -1.64322e-18  Max(alpha.water) = 1
GAMG:  Solving for p_rgh, Initial residual = 0.0117321, Final residual = 5.14152e-05, No Iterations 2
time step continuity errors : sum local = 3.12168e-06, global = 1.39964e-08
GAMGPCG:  Solving for p_rgh, Initial residual = 0.00422655, Final residual = 2.99962e-10, No Iterations 5
time step continuity errors : sum local = 1.82173e-11, global = 8.1548e-14, cumulative = -1.37066e-11
ExecutionTime = 9.46655 s  ClockTime = 10 s

Courant Number mean: 0.0281971 max: 0.867538
Interface Courant Number mean: 0.002063 max: 0.521044
deltaT = 3.03242e-05
Time = 0.00100829s

MULES: Solving for alpha.water
MULES: Solving for alpha.water
Phase-1 volume fraction = 0.500257  Min(alpha.water) = -1.50591e-18  Max(alpha.water) = 1
MULES: Solving for alpha.water
MULES: Solving for alpha.water
Phase-1 volume fraction = 0.500257  Min(alpha.water) = -1.57977e-18  Max(alpha.water) = 1
GAMG:  Solving for p_rgh, Initial residual = 0.0125401, Final residual = 7.37139e-05, No Iterations 2
time step continuity errors : sum local = 4.11944e-06, global = -3.79702e-08
GAMGPCG:  Solving for p_rgh, Initial residual = 0.00458017, Final residual = 2.9871e-10, No Iterations 5
time step continuity errors : sum local = 1.66653e-11, global = 6.75835e-13, cumulative = -1.30307e-11
ExecutionTime = 9.66501 s  ClockTime = 10 s

Courant Number mean: 0.0270343 max: 0.805579
Interface Courant Number mean: 0.001999 max: 0.538806
deltaT = 2.81378e-05
Time = 0.00103643s

MULES: Solving for alpha.water
MULES: Solving for alpha.water
Phase-1 volume fraction = 0.500257  Min(alpha.water) = -1.78609e-18  Max(alpha.water) = 1
MULES: Solving for alpha.water
MULES: Solving for alpha.water
Phase-1 volume fraction = 0.500257  Min(alpha.water) = -2.1426e-18  Max(alpha.water) = 1
GAMG:  Solving for p_rgh, Initial residual = 0.0121855, Final residual = 7.17341e-05, No Iterations 2
time step continuity errors : sum local = 3.46361e-06, global = 1.69507e-08
GAMGPCG:  Solving for p_rgh, Initial residual = 0.00412309, Final residual = 4.00705e-10, No Iterations 5
time step continuity errors : sum local = 1.93381e-11, global = -3.85487e-13, cumulative = -1.34162e-11
ExecutionTime = 9.86071 s  ClockTime = 10 s

Courant Number mean: 0.0250587 max: 0.765393
Interface Courant Number mean: 0.00184432 max: 0.533812
deltaT = 2.63537e-05
Time = 0.00106279s

MULES: Solving for alpha.water
MULES: Solving for alpha.water
Phase-1 volume fraction = 0.500257  Min(alpha.water) = -5.57635e-19  Max(alpha.water) = 1
MULES: Solving for alpha.water
MULES: Solving for alpha.water
Phase-1 volume fraction = 0.500257  Min(alpha.water) = -1.01496e-18  Max(alpha.water) = 1
GAMG:  Solving for p_rgh, Initial residual = 0.0117486, Final residual = 6.37086e-05, No Iterations 2
time step continuity errors : sum local = 2.69982e-06, global = -3.18159e-08
GAMGPCG:  Solving for p_rgh, Initial residual = 0.00409823, Final residual = 5.67552e-10, No Iterations 5
time step continuity errors : sum local = 2.40006e-11, global = -4.10834e-13, cumulative = -1.38271e-11
ExecutionTime = 10.0677 s  ClockTime = 10 s

Courant Number mean: 0.0234186 max: 0.751588
Interface Courant Number mean: 0.00175801 max: 0.528152
deltaT = 2.49486e-05
Time = 0.00108773s

MULES: Solving for alpha.water
MULES: Solving for alpha.water
Phase-1 volume fraction = 0.500257  Min(alpha.water) = -1.22876e-18  Max(alpha.water) = 1
MULES: Solving for alpha.water
MULES: Solving for alpha.water
Phase-1 volume fraction = 0.500257  Min(alpha.water) = -6.09111e-19  Max(alpha.water) = 1
GAMG:  Solving for p_rgh, Initial residual = 0.00978543, Final residual = 5.97604e-05, No Iterations 2
time step continuity errors : sum local = 2.27269e-06, global = 3.99941e-09
GAMGPCG:  Solving for p_rgh, Initial residual = 0.00354318, Final residual = 2.31333e-10, No Iterations 5
time step continuity errors : sum local = 8.81028e-12, global = -3.28885e-13, cumulative = -1.41559e-11
ExecutionTime = 10.2706 s  ClockTime = 11 s

Courant Number mean: 0.0221219 max: 0.740675
Interface Courant Number mean: 0.0016611 max: 0.519185
deltaT = 2.40263e-05
Time = 0.00111176s

MULES: Solving for alpha.water
MULES: Solving for alpha.water
Phase-1 volume fraction = 0.500257  Min(alpha.water) = -1.47579e-18  Max(alpha.water) = 1
MULES: Solving for alpha.water
MULES: Solving for alpha.water
Phase-1 volume fraction = 0.500257  Min(alpha.water) = -5.34773e-11  Max(alpha.water) = 1
GAMG:  Solving for p_rgh, Initial residual = 0.0100021, Final residual = 5.93754e-05, No Iterations 2
time step continuity errors : sum local = 2.09825e-06, global = -1.2469e-08
GAMGPCG:  Solving for p_rgh, Initial residual = 0.0034971, Final residual = 2.94838e-10, No Iterations 5
time step continuity errors : sum local = 1.04036e-11, global = -1.79631e-13, cumulative = -1.43356e-11
ExecutionTime = 10.4735 s  ClockTime = 11 s

Courant Number mean: 0.0212525 max: 0.746846
Interface Courant Number mean: 0.00158772 max: 0.509382
deltaT = 2.35824e-05
Time = 0.00113534s

MULES: Solving for alpha.water
MULES: Solving for alpha.water
Phase-1 volume fraction = 0.500257  Min(alpha.water) = -3.20204e-11  Max(alpha.water) = 1
MULES: Solving for alpha.water
MULES: Solving for alpha.water
Phase-1 volume fraction = 0.500257  Min(alpha.water) = -9.53483e-19  Max(alpha.water) = 1
GAMG:  Solving for p_rgh, Initial residual = 0.00935974, Final residual = 4.72709e-05, No Iterations 2
time step continuity errors : sum local = 1.60551e-06, global = -5.967e-09
GAMGPCG:  Solving for p_rgh, Initial residual = 0.00301723, Final residual = 2.38193e-10, No Iterations 5
time step continuity errors : sum local = 8.10529e-12, global = -6.76266e-13, cumulative = -1.50118e-11
ExecutionTime = 10.6727 s  ClockTime = 11 s

Courant Number mean: 0.0208229 max: 0.759836
Interface Courant Number mean: 0.00158908 max: 0.502827
deltaT = 2.3449e-05
Time = 0.00115879s

MULES: Solving for alpha.water
MULES: Solving for alpha.water
Phase-1 volume fraction = 0.500257  Min(alpha.water) = -2.37442e-18  Max(alpha.water) = 1
MULES: Solving for alpha.water
MULES: Solving for alpha.water
Phase-1 volume fraction = 0.500257  Min(alpha.water) = -1.08917e-18  Max(alpha.water) = 1
GAMG:  Solving for p_rgh, Initial residual = 0.00936169, Final residual = 4.53568e-05, No Iterations 2
time step continuity errors : sum local = 1.52341e-06, global = -8.33789e-09
GAMGPCG:  Solving for p_rgh, Initial residual = 0.00320895, Final residual = 3.51693e-10, No Iterations 5
time step continuity errors : sum local = 1.18108e-11, global = -1.86438e-13, cumulative = -1.51983e-11
ExecutionTime = 10.8754 s  ClockTime = 11 s

Courant Number mean: 0.0206674 max: 0.774989
Interface Courant Number mean: 0.00157225 max: 0.498304
deltaT = 2.35266e-05
Time = 0.00118232s

MULES: Solving for alpha.water
MULES: Solving for alpha.water
Phase-1 volume fraction = 0.500257  Min(alpha.water) = -9.58724e-19  Max(alpha.water) = 1
MULES: Solving for alpha.water
MULES: Solving for alpha.water
Phase-1 volume fraction = 0.500257  Min(alpha.water) = -5.00833e-19  Max(alpha.water) = 1
GAMG:  Solving for p_rgh, Initial residual = 0.00907108, Final residual = 4.7902e-05, No Iterations 2
time step continuity errors : sum local = 1.62315e-06, global = -1.72302e-08
GAMGPCG:  Solving for p_rgh, Initial residual = 0.00310246, Final residual = 2.54619e-10, No Iterations 5
time step continuity errors : sum local = 8.64308e-12, global = -4.17056e-13, cumulative = -1.56153e-11
ExecutionTime = 11.0828 s  ClockTime = 11 s

Courant Number mean: 0.0206956 max: 0.785293
Interface Courant Number mean: 0.00159163 max: 0.49435
deltaT = 2.37944e-05
Time = 0.00120611s

MULES: Solving for alpha.water
MULES: Solving for alpha.water
Phase-1 volume fraction = 0.500257  Min(alpha.water) = -9.85849e-19  Max(alpha.water) = 1
MULES: Solving for alpha.water
MULES: Solving for alpha.water
Phase-1 volume fraction = 0.500257  Min(alpha.water) = -2.57004e-18  Max(alpha.water) = 1
GAMG:  Solving for p_rgh, Initial residual = 0.00863151, Final residual = 5.43666e-05, No Iterations 2
time step continuity errors : sum local = 1.87904e-06, global = -6.90697e-09
GAMGPCG:  Solving for p_rgh, Initial residual = 0.00324638, Final residual = 1.16152e-10, No Iterations 5
time step continuity errors : sum local = 4.01656e-12, global = -1.72422e-13, cumulative = -1.57877e-11
ExecutionTime = 11.286 s  ClockTime = 12 s

Courant Number mean: 0.0208879 max: 0.791506
Interface Courant Number mean: 0.00159592 max: 0.49059
deltaT = 2.42489e-05
Time = 0.00123036s

MULES: Solving for alpha.water
MULES: Solving for alpha.water
Phase-1 volume fraction = 0.500257  Min(alpha.water) = -9.75235e-19  Max(alpha.water) = 1
MULES: Solving for alpha.water
MULES: Solving for alpha.water
Phase-1 volume fraction = 0.500257  Min(alpha.water) = -1.0012e-18  Max(alpha.water) = 1
GAMG:  Solving for p_rgh, Initial residual = 0.00905205, Final residual = 4.41133e-05, No Iterations 2
time step continuity errors : sum local = 1.58981e-06, global = 6.48301e-09
GAMGPCG:  Solving for p_rgh, Initial residual = 0.00312047, Final residual = 2.18892e-10, No Iterations 5
time step continuity errors : sum local = 7.90007e-12, global = -1.61645e-13, cumulative = -1.59494e-11
ExecutionTime = 11.485 s  ClockTime = 12 s

Courant Number mean: 0.0212615 max: 0.791857
Interface Courant Number mean: 0.00164457 max: 0.484629
deltaT = 2.50171e-05
Time = 0.00125538s

MULES: Solving for alpha.water
MULES: Solving for alpha.water
Phase-1 volume fraction = 0.500257  Min(alpha.water) = -1.0012e-18  Max(alpha.water) = 1
MULES: Solving for alpha.water
MULES: Solving for alpha.water
Phase-1 volume fraction = 0.500257  Min(alpha.water) = -1.66373e-18  Max(alpha.water) = 1
GAMG:  Solving for p_rgh, Initial residual = 0.00947212, Final residual = 4.94367e-05, No Iterations 2
time step continuity errors : sum local = 1.89137e-06, global = 2.71561e-08
GAMGPCG:  Solving for p_rgh, Initial residual = 0.00331427, Final residual = 1.7582e-10, No Iterations 5
time step continuity errors : sum local = 6.7085e-12, global = 9.27693e-14, cumulative = -1.58566e-11
ExecutionTime = 11.6892 s  ClockTime = 12 s

Courant Number mean: 0.0219175 max: 0.78547
Interface Courant Number mean: 0.00169617 max: 0.466391
deltaT = 2.68188e-05
Time = 0.0012822s

MULES: Solving for alpha.water
MULES: Solving for alpha.water
Phase-1 volume fraction = 0.500257  Min(alpha.water) = -9.8332e-19  Max(alpha.water) = 1
MULES: Solving for alpha.water
MULES: Solving for alpha.water
Phase-1 volume fraction = 0.500257  Min(alpha.water) = -6.61189e-19  Max(alpha.water) = 1
GAMG:  Solving for p_rgh, Initial residual = 0.0105071, Final residual = 6.68029e-05, No Iterations 2
time step continuity errors : sum local = 2.91135e-06, global = -4.12268e-09
GAMGPCG:  Solving for p_rgh, Initial residual = 0.00504891, Final residual = 5.99991e-10, No Iterations 5
time step continuity errors : sum local = 2.62096e-11, global = -7.27427e-13, cumulative = -1.65841e-11
ExecutionTime = 11.8924 s  ClockTime = 12 s

Courant Number mean: 0.02349 max: 0.830871
Interface Courant Number mean: 0.0017859 max: 0.440602
deltaT = 3.04316e-05
Time = 0.00131263s

MULES: Solving for alpha.water
MULES: Solving for alpha.water
Phase-1 volume fraction = 0.500257  Min(alpha.water) = -4.21119e-18  Max(alpha.water) = 1
MULES: Solving for alpha.water
MULES: Solving for alpha.water
Phase-1 volume fraction = 0.500257  Min(alpha.water) = -3.02722e-18  Max(alpha.water) = 1
GAMG:  Solving for p_rgh, Initial residual = 0.0119878, Final residual = 5.57854e-05, No Iterations 2
time step continuity errors : sum local = 3.09676e-06, global = 3.95756e-08
GAMGPCG:  Solving for p_rgh, Initial residual = 0.00427814, Final residual = 1.53891e-10, No Iterations 5
time step continuity errors : sum local = 8.5221e-12, global = -3.57851e-13, cumulative = -1.69419e-11
ExecutionTime = 12.092 s  ClockTime = 12 s

Courant Number mean: 0.0266923 max: 0.999967
Interface Courant Number mean: 0.00203053 max: 0.494553
deltaT = 3.04316e-05
Time = 0.00134306s

MULES: Solving for alpha.water
MULES: Solving for alpha.water
Phase-1 volume fraction = 0.500257  Min(alpha.water) = -9.2457e-19  Max(alpha.water) = 1
MULES: Solving for alpha.water
MULES: Solving for alpha.water
Phase-1 volume fraction = 0.500257  Min(alpha.water) = -1.26965e-18  Max(alpha.water) = 1
GAMG:  Solving for p_rgh, Initial residual = 0.0114409, Final residual = 6.51313e-05, No Iterations 2
time step continuity errors : sum local = 3.60305e-06, global = 5.0457e-08
GAMGPCG:  Solving for p_rgh, Initial residual = 0.00421911, Final residual = 2.98348e-10, No Iterations 5
time step continuity errors : sum local = 1.65207e-11, global = 4.19844e-14, cumulative = -1.68999e-11
ExecutionTime = 12.2994 s  ClockTime = 13 s

Courant Number mean: 0.0266637 max: 1.27321
Interface Courant Number mean: 0.00209384 max: 0.490825
deltaT = 2.39001e-05
Time = 0.00136696s

MULES: Solving for alpha.water
MULES: Solving for alpha.water
Phase-1 volume fraction = 0.500257  Min(alpha.water) = -5.3573e-19  Max(alpha.water) = 1
MULES: Solving for alpha.water
MULES: Solving for alpha.water
Phase-1 volume fraction = 0.500257  Min(alpha.water) = -1.68205e-18  Max(alpha.water) = 1
GAMG:  Solving for p_rgh, Initial residual = 0.0108739, Final residual = 4.37571e-05, No Iterations 2
time step continuity errors : sum local = 1.54259e-06, global = 5.32323e-09
GAMGPCG:  Solving for p_rgh, Initial residual = 0.00345927, Final residual = 1.86525e-10, No Iterations 5
time step continuity errors : sum local = 6.60077e-12, global = -1.04522e-13, cumulative = -1.70044e-11
ExecutionTime = 12.5014 s  ClockTime = 13 s

Courant Number mean: 0.0209054 max: 0.969692
Interface Courant Number mean: 0.00168619 max: 0.449714
deltaT = 2.46464e-05
Time = 0.00139161s

MULES: Solving for alpha.water
MULES: Solving for alpha.water
Phase-1 volume fraction = 0.500257  Min(alpha.water) = -1.84439e-18  Max(alpha.water) = 1
MULES: Solving for alpha.water
MULES: Solving for alpha.water
Phase-1 volume fraction = 0.500257  Min(alpha.water) = -8.94755e-19  Max(alpha.water) = 1
GAMG:  Solving for p_rgh, Initial residual = 0.0094875, Final residual = 4.94297e-05, No Iterations 2
time step continuity errors : sum local = 1.86187e-06, global = 2.23091e-08
GAMGPCG:  Solving for p_rgh, Initial residual = 0.00327209, Final residual = 2.70521e-10, No Iterations 5
time step continuity errors : sum local = 1.01521e-11, global = -2.54788e-13, cumulative = -1.72592e-11
ExecutionTime = 12.7128 s  ClockTime = 13 s

Courant Number mean: 0.0215754 max: 0.933058
Interface Courant Number mean: 0.00173799 max: 0.469469
deltaT = 2.62467e-05
Time = 0.00141785s

MULES: Solving for alpha.water
MULES: Solving for alpha.water
Phase-1 volume fraction = 0.500257  Min(alpha.water) = -1.96679e-18  Max(alpha.water) = 1
MULES: Solving for alpha.water
MULES: Solving for alpha.water
Phase-1 volume fraction = 0.500257  Min(alpha.water) = -1.36703e-18  Max(alpha.water) = 1
GAMG:  Solving for p_rgh, Initial residual = 0.00931704, Final residual = 5.55001e-05, No Iterations 2
time step continuity errors : sum local = 2.33011e-06, global = -7.77589e-09
GAMGPCG:  Solving for p_rgh, Initial residual = 0.00351983, Final residual = 2.05163e-10, No Iterations 5
time step continuity errors : sum local = 8.54811e-12, global = -3.61282e-13, cumulative = -1.76205e-11
ExecutionTime = 12.9142 s  ClockTime = 13 s

Courant Number mean: 0.0229939 max: 0.931156
Interface Courant Number mean: 0.00185192 max: 0.508989
deltaT = 2.57812e-05
Time = 0.00144364s

MULES: Solving for alpha.water
MULES: Solving for alpha.water
Phase-1 volume fraction = 0.500257  Min(alpha.water) = -6.1201e-19  Max(alpha.water) = 1
MULES: Solving for alpha.water
MULES: Solving for alpha.water
Phase-1 volume fraction = 0.500257  Min(alpha.water) = -7.77904e-19  Max(alpha.water) = 1
GAMG:  Solving for p_rgh, Initial residual = 0.00903785, Final residual = 4.64992e-05, No Iterations 2
time step continuity errors : sum local = 1.89037e-06, global = 2.41589e-08
GAMGPCG:  Solving for p_rgh, Initial residual = 0.00332067, Final residual = 2.21056e-10, No Iterations 5
time step continuity errors : sum local = 8.98061e-12, global = -4.62861e-13, cumulative = -1.80834e-11
ExecutionTime = 13.1197 s  ClockTime = 13 s

Courant Number mean: 0.0225954 max: 0.865736
Interface Courant Number mean: 0.00179837 max: 0.50961
deltaT = 2.52932e-05
Time = 0.00146893s

MULES: Solving for alpha.water
MULES: Solving for alpha.water
Phase-1 volume fraction = 0.500257  Min(alpha.water) = -1.73614e-18  Max(alpha.water) = 1
MULES: Solving for alpha.water
MULES: Solving for alpha.water
Phase-1 volume fraction = 0.500257  Min(alpha.water) = -4.64967e-19  Max(alpha.water) = 1
GAMG:  Solving for p_rgh, Initial residual = 0.0089097, Final residual = 4.15177e-05, No Iterations 2
time step continuity errors : sum local = 1.62582e-06, global = 1.17495e-08
GAMGPCG:  Solving for p_rgh, Initial residual = 0.00306953, Final residual = 2.11589e-10, No Iterations 5
time step continuity errors : sum local = 8.252e-12, global = -7.36029e-13, cumulative = -1.88194e-11
ExecutionTime = 13.3248 s  ClockTime = 14 s

Courant Number mean: 0.022175 max: 0.808524
Interface Courant Number mean: 0.00177828 max: 0.50607
deltaT = 2.4988e-05
Time = 0.00149392s

MULES: Solving for alpha.water
MULES: Solving for alpha.water
Phase-1 volume fraction = 0.500257  Min(alpha.water) = -1.32799e-18  Max(alpha.water) = 1
MULES: Solving for alpha.water
MULES: Solving for alpha.water
Phase-1 volume fraction = 0.500257  Min(alpha.water) = -8.6738e-19  Max(alpha.water) = 1
GAMG:  Solving for p_rgh, Initial residual = 0.0103713, Final residual = 7.17928e-05, No Iterations 2
time step continuity errors : sum local = 2.74384e-06, global = 1.06053e-08
GAMGPCG:  Solving for p_rgh, Initial residual = 0.00351682, Final residual = 2.96186e-10, No Iterations 5
time step continuity errors : sum local = 1.13189e-11, global = 1.50522e-13, cumulative = -1.86689e-11
ExecutionTime = 13.5259 s  ClockTime = 14 s

Courant Number mean: 0.0219221 max: 0.764872
Interface Courant Number mean: 0.00173509 max: 0.503376
deltaT = 2.48183e-05
Time = 0.00151873s

MULES: Solving for alpha.water
MULES: Solving for alpha.water
Phase-1 volume fraction = 0.500257  Min(alpha.water) = -6.61156e-19  Max(alpha.water) = 1
MULES: Solving for alpha.water
MULES: Solving for alpha.water
Phase-1 volume fraction = 0.500257  Min(alpha.water) = -7.8196e-19  Max(alpha.water) = 1
GAMG:  Solving for p_rgh, Initial residual = 0.00817301, Final residual = 4.20535e-05, No Iterations 2
time step continuity errors : sum local = 1.58858e-06, global = 1.87032e-08
GAMGPCG:  Solving for p_rgh, Initial residual = 0.00309837, Final residual = 1.80242e-10, No Iterations 5
time step continuity errors : sum local = 6.79027e-12, global = -2.00446e-13, cumulative = -1.88693e-11
ExecutionTime = 13.7337 s  ClockTime = 14 s

Courant Number mean: 0.0218033 max: 0.757947
Interface Courant Number mean: 0.0016996 max: 0.501134
deltaT = 2.47615e-05
Time = 0.0015435s

MULES: Solving for alpha.water
MULES: Solving for alpha.water
Phase-1 volume fraction = 0.500257  Min(alpha.water) = -5.82491e-19  Max(alpha.water) = 1
MULES: Solving for alpha.water
MULES: Solving for alpha.water
Phase-1 volume fraction = 0.500257  Min(alpha.water) = -1.25418e-18  Max(alpha.water) = 1
GAMG:  Solving for p_rgh, Initial residual = 0.00824304, Final residual = 3.68314e-05, No Iterations 2
time step continuity errors : sum local = 1.38231e-06, global = 2.12801e-08
GAMGPCG:  Solving for p_rgh, Initial residual = 0.00309133, Final residual = 3.6141e-10, No Iterations 5
time step continuity errors : sum local = 1.35384e-11, global = 4.36447e-14, cumulative = -1.88257e-11
ExecutionTime = 13.9359 s  ClockTime = 14 s

Courant Number mean: 0.0217746 max: 0.754213
Interface Courant Number mean: 0.00169582 max: 0.499066
deltaT = 2.4806e-05
Time = 0.0015683s

MULES: Solving for alpha.water
MULES: Solving for alpha.water
Phase-1 volume fraction = 0.500257  Min(alpha.water) = -6.09159e-19  Max(alpha.water) = 1
MULES: Solving for alpha.water
MULES: Solving for alpha.water
Phase-1 volume fraction = 0.500257  Min(alpha.water) = -1.16372e-18  Max(alpha.water) = 1
GAMG:  Solving for p_rgh, Initial residual = 0.00748881, Final residual = 2.61849e-05, No Iterations 2
time step continuity errors : sum local = 9.83602e-07, global = 7.33829e-09
GAMGPCG:  Solving for p_rgh, Initial residual = 0.00284927, Final residual = 1.59171e-10, No Iterations 5
time step continuity errors : sum local = 5.95706e-12, global = -2.62295e-13, cumulative = -1.9088e-11
ExecutionTime = 14.137 s  ClockTime = 14 s

Courant Number mean: 0.0218338 max: 0.75329
Interface Courant Number mean: 0.00170554 max: 0.496395
deltaT = 2.49856e-05
Time = 0.00159329s

MULES: Solving for alpha.water
MULES: Solving for alpha.water
Phase-1 volume fraction = 0.500257  Min(alpha.water) = -8.45061e-19  Max(alpha.water) = 1
MULES: Solving for alpha.water
MULES: Solving for alpha.water
Phase-1 volume fraction = 0.500257  Min(alpha.water) = -3.01751e-19  Max(alpha.water) = 1
GAMG:  Solving for p_rgh, Initial residual = 0.00805755, Final residual = 4.41045e-05, No Iterations 2
time step continuity errors : sum local = 1.67741e-06, global = 1.31087e-09
GAMGPCG:  Solving for p_rgh, Initial residual = 0.00279138, Final residual = 3.73779e-10, No Iterations 5
time step continuity errors : sum local = 1.41898e-11, global = 2.31058e-13, cumulative = -1.88569e-11
ExecutionTime = 14.337 s  ClockTime = 15 s

Courant Number mean: 0.0220073 max: 0.755915
Interface Courant Number mean: 0.00171941 max: 0.493746
deltaT = 2.53012e-05
Time = 0.00161859s

MULES: Solving for alpha.water
MULES: Solving for alpha.water
Phase-1 volume fraction = 0.500257  Min(alpha.water) = -1.51197e-18  Max(alpha.water) = 1
MULES: Solving for alpha.water
MULES: Solving for alpha.water
Phase-1 volume fraction = 0.500257  Min(alpha.water) = -1.02415e-18  Max(alpha.water) = 1
GAMG:  Solving for p_rgh, Initial residual = 0.00798974, Final residual = 3.94038e-05, No Iterations 2
time step continuity errors : sum local = 1.5343e-06, global = 3.54768e-08
GAMGPCG:  Solving for p_rgh, Initial residual = 0.00288038, Final residual = 1.20813e-10, No Iterations 5
time step continuity errors : sum local = 4.68606e-12, global = -1.93956e-13, cumulative = -1.90509e-11
ExecutionTime = 14.5336 s  ClockTime = 15 s

Courant Number mean: 0.0223181 max: 0.785404
Interface Courant Number mean: 0.00173117 max: 0.491132
deltaT = 2.57577e-05
Time = 0.00164435s

MULES: Solving for alpha.water
MULES: Solving for alpha.water
Phase-1 volume fraction = 0.500257  Min(alpha.water) = -2.00772e-18  Max(alpha.water) = 1
MULES: Solving for alpha.water
MULES: Solving for alpha.water
Phase-1 volume fraction = 0.500257  Min(alpha.water) = -1.79323e-18  Max(alpha.water) = 1
GAMG:  Solving for p_rgh, Initial residual = 0.00795275, Final residual = 3.78879e-05, No Iterations 2
time step continuity errors : sum local = 1.52738e-06, global = -7.46992e-09
GAMGPCG:  Solving for p_rgh, Initial residual = 0.00291217, Final residual = 2.22493e-10, No Iterations 5
time step continuity errors : sum local = 8.94418e-12, global = -1.5781e-14, cumulative = -1.90667e-11
ExecutionTime = 14.7355 s  ClockTime = 15 s

Courant Number mean: 0.022763 max: 0.832523
Interface Courant Number mean: 0.00178799 max: 0.488989
deltaT = 2.63368e-05
Time = 0.00167068s

MULES: Solving for alpha.water
MULES: Solving for alpha.water
Phase-1 volume fraction = 0.500257  Min(alpha.water) = -6.23314e-19  Max(alpha.water) = 1
MULES: Solving for alpha.water
MULES: Solving for alpha.water
Phase-1 volume fraction = 0.500257  Min(alpha.water) = -3.95912e-18  Max(alpha.water) = 1
GAMG:  Solving for p_rgh, Initial residual = 0.00829625, Final residual = 5.44384e-05, No Iterations 2
time step continuity errors : sum local = 2.27758e-06, global = 1.57116e-08
GAMGPCG:  Solving for p_rgh, Initial residual = 0.00297531, Final residual = 1.84948e-10, No Iterations 5
time step continuity errors : sum local = 7.68997e-12, global = -6.70149e-14, cumulative = -1.91337e-11
ExecutionTime = 14.9403 s  ClockTime = 15 s

Courant Number mean: 0.0233525 max: 0.879245
Interface Courant Number mean: 0.00185118 max: 0.491245
deltaT = 2.68058e-05
Time = 0.00169749s

MULES: Solving for alpha.water
MULES: Solving for alpha.water
Phase-1 volume fraction = 0.500257  Min(alpha.water) = -1.07213e-18  Max(alpha.water) = 1
MULES: Solving for alpha.water
MULES: Solving for alpha.water
Phase-1 volume fraction = 0.500257  Min(alpha.water) = -2.7442e-18  Max(alpha.water) = 1
GAMG:  Solving for p_rgh, Initial residual = 0.00856004, Final residual = 3.61351e-05, No Iterations 2
time step continuity errors : sum local = 1.5552e-06, global = -1.75169e-11
GAMGPCG:  Solving for p_rgh, Initial residual = 0.00297214, Final residual = 1.61606e-10, No Iterations 5
time step continuity errors : sum local = 6.93386e-12, global = -1.45414e-13, cumulative = -1.92791e-11
ExecutionTime = 15.1502 s  ClockTime = 16 s

Courant Number mean: 0.0238411 max: 0.869339
Interface Courant Number mean: 0.00188532 max: 0.511809
deltaT = 2.61867e-05
Time = 0.00172368s

MULES: Solving for alpha.water
MULES: Solving for alpha.water
Phase-1 volume fraction = 0.500257  Min(alpha.water) = -8.75244e-19  Max(alpha.water) = 1
MULES: Solving for alpha.water
MULES: Solving for alpha.water
Phase-1 volume fraction = 0.500257  Min(alpha.water) = -2.18476e-18  Max(alpha.water) = 1
GAMG:  Solving for p_rgh, Initial residual = 0.00819156, Final residual = 4.71851e-05, No Iterations 2
time step continuity errors : sum local = 1.93075e-06, global = 1.02629e-09
GAMGPCG:  Solving for p_rgh, Initial residual = 0.0029509, Final residual = 8.76895e-11, No Iterations 5
time step continuity errors : sum local = 3.57478e-12, global = 3.22794e-14, cumulative = -1.92468e-11
ExecutionTime = 15.3516 s  ClockTime = 16 s

Courant Number mean: 0.0233693 max: 0.797301
Interface Courant Number mean: 0.00183891 max: 0.51197
deltaT = 2.55744e-05
Time = 0.00174925s

MULES: Solving for alpha.water
MULES: Solving for alpha.water
Phase-1 volume fraction = 0.500257  Min(alpha.water) = -2.67502e-18  Max(alpha.water) = 1
MULES: Solving for alpha.water
MULES: Solving for alpha.water
Phase-1 volume fraction = 0.500257  Min(alpha.water) = -9.05864e-19  Max(alpha.water) = 1
GAMG:  Solving for p_rgh, Initial residual = 0.00765003, Final residual = 3.50196e-05, No Iterations 2
time step continuity errors : sum local = 1.35948e-06, global = -3.95042e-09
GAMGPCG:  Solving for p_rgh, Initial residual = 0.00270384, Final residual = 2.18843e-10, No Iterations 5
time step continuity errors : sum local = 8.47209e-12, global = 1.58969e-13, cumulative = -1.90878e-11
ExecutionTime = 15.5525 s  ClockTime = 16 s

Courant Number mean: 0.0229134 max: 0.765272
Interface Courant Number mean: 0.00176659 max: 0.512298
deltaT = 2.49599e-05
Time = 0.00177421s

MULES: Solving for alpha.water
MULES: Solving for alpha.water
Phase-1 volume fraction = 0.500257  Min(alpha.water) = -1.459e-18  Max(alpha.water) = 1
MULES: Solving for alpha.water
MULES: Solving for alpha.water
Phase-1 volume fraction = 0.500257  Min(alpha.water) = -1.40513e-18  Max(alpha.water) = 1
GAMG:  Solving for p_rgh, Initial residual = 0.0088595, Final residual = 5.94106e-05, No Iterations 2
time step continuity errors : sum local = 2.19475e-06, global = -4.06222e-08
GAMGPCG:  Solving for p_rgh, Initial residual = 0.003113, Final residual = 4.65658e-10, No Iterations 5
time step continuity errors : sum local = 1.72028e-11, global = -5.20019e-13, cumulative = -1.96079e-11
ExecutionTime = 15.7546 s  ClockTime = 16 s

Courant Number mean: 0.0224433 max: 0.744188
Interface Courant Number mean: 0.0017101 max: 0.512722
deltaT = 2.43382e-05
Time = 0.00179855s

MULES: Solving for alpha.water
MULES: Solving for alpha.water
Phase-1 volume fraction = 0.500257  Min(alpha.water) = -1.52516e-18  Max(alpha.water) = 1
MULES: Solving for alpha.water
MULES: Solving for alpha.water
Phase-1 volume fraction = 0.500257  Min(alpha.water) = -4.34736e-18  Max(alpha.water) = 1
GAMG:  Solving for p_rgh, Initial residual = 0.00918485, Final residual = 4.44464e-05, No Iterations 2
time step continuity errors : sum local = 1.56722e-06, global = 1.61379e-09
GAMGPCG:  Solving for p_rgh, Initial residual = 0.00319555, Final residual = 2.6939e-10, No Iterations 5
time step continuity errors : sum local = 9.4836e-12, global = -2.93977e-13, cumulative = -1.99018e-11
ExecutionTime = 15.9561 s  ClockTime = 16 s

Courant Number mean: 0.0219731 max: 0.735448
Interface Courant Number mean: 0.00167721 max: 0.513094
deltaT = 2.3715e-05
Time = 0.00182226s

MULES: Solving for alpha.water
MULES: Solving for alpha.water
Phase-1 volume fraction = 0.500257  Min(alpha.water) = -3.60984e-19  Max(alpha.water) = 1
MULES: Solving for alpha.water
MULES: Solving for alpha.water
Phase-1 volume fraction = 0.500257  Min(alpha.water) = -3.8861e-19  Max(alpha.water) = 1
GAMG:  Solving for p_rgh, Initial residual = 0.00990638, Final residual = 6.60469e-05, No Iterations 2
time step continuity errors : sum local = 2.22346e-06, global = -3.89644e-09
GAMGPCG:  Solving for p_rgh, Initial residual = 0.00344606, Final residual = 8.7674e-10, No Iterations 5
time step continuity errors : sum local = 2.94891e-11, global = -3.92255e-13, cumulative = -2.02941e-11
ExecutionTime = 16.1599 s  ClockTime = 17 s

Courant Number mean: 0.0214326 max: 0.716048
Interface Courant Number mean: 0.00159551 max: 0.392857
deltaT = 2.84575e-05
Time = 0.00185072s

MULES: Solving for alpha.water
MULES: Solving for alpha.water
Phase-1 volume fraction = 0.500257  Min(alpha.water) = -3.40578e-19  Max(alpha.water) = 1
MULES: Solving for alpha.water
MULES: Solving for alpha.water
Phase-1 volume fraction = 0.500257  Min(alpha.water) = -1.48196e-18  Max(alpha.water) = 1
GAMG:  Solving for p_rgh, Initial residual = 0.0108703, Final residual = 6.32764e-05, No Iterations 2
time step continuity errors : sum local = 3.03008e-06, global = 2.51236e-08
GAMGPCG:  Solving for p_rgh, Initial residual = 0.00352649, Final residual = 3.61138e-10, No Iterations 5
time step continuity errors : sum local = 1.71782e-11, global = -2.95215e-13, cumulative = -2.05893e-11
ExecutionTime = 16.358 s  ClockTime = 17 s

Courant Number mean: 0.0257251 max: 0.838067
Interface Courant Number mean: 0.00192082 max: 0.473331
deltaT = 3.00605e-05
Time = 0.00188078s

MULES: Solving for alpha.water
MULES: Solving for alpha.water
Phase-1 volume fraction = 0.500257  Min(alpha.water) = -3.73063e-16  Max(alpha.water) = 1
MULES: Solving for alpha.water
MULES: Solving for alpha.water
Phase-1 volume fraction = 0.500257  Min(alpha.water) = -6.38723e-16  Max(alpha.water) = 1
GAMG:  Solving for p_rgh, Initial residual = 0.00978827, Final residual = 5.31166e-05, No Iterations 2
time step continuity errors : sum local = 2.78095e-06, global = 2.00519e-09
GAMGPCG:  Solving for p_rgh, Initial residual = 0.00345557, Final residual = 2.37151e-10, No Iterations 5
time step continuity errors : sum local = 1.24056e-11, global = 2.67479e-13, cumulative = -2.03218e-11
ExecutionTime = 16.5595 s  ClockTime = 17 s

Courant Number mean: 0.0271663 max: 0.880363
Interface Courant Number mean: 0.00202729 max: 0.506018
deltaT = 2.97006e-05
Time = 0.00191048s

MULES: Solving for alpha.water
MULES: Solving for alpha.water
Phase-1 volume fraction = 0.500257  Min(alpha.water) = -6.11702e-16  Max(alpha.water) = 1
MULES: Solving for alpha.water
MULES: Solving for alpha.water
Phase-1 volume fraction = 0.500257  Min(alpha.water) = -5.81332e-16  Max(alpha.water) = 1
GAMG:  Solving for p_rgh, Initial residual = 0.00962836, Final residual = 8.27197e-05, No Iterations 2
time step continuity errors : sum local = 4.22162e-06, global = 2.23813e-08
GAMGPCG:  Solving for p_rgh, Initial residual = 0.00377187, Final residual = 3.61197e-10, No Iterations 5
time step continuity errors : sum local = 1.83949e-11, global = 1.0605e-12, cumulative = -1.92613e-11
ExecutionTime = 16.7639 s  ClockTime = 17 s

Courant Number mean: 0.0267693 max: 0.862927
Interface Courant Number mean: 0.00200609 max: 0.487957
deltaT = 3.0433e-05
Time = 0.00194092s

MULES: Solving for alpha.water
MULES: Solving for alpha.water
Phase-1 volume fraction = 0.500257  Min(alpha.water) = -5.51823e-16  Max(alpha.water) = 1
MULES: Solving for alpha.water
MULES: Solving for alpha.water
Phase-1 volume fraction = 0.500257  Min(alpha.water) = -5.23811e-16  Max(alpha.water) = 1
GAMG:  Solving for p_rgh, Initial residual = 0.0101192, Final residual = 5.80332e-05, No Iterations 2
time step continuity errors : sum local = 3.08965e-06, global = 1.88366e-08
GAMGPCG:  Solving for p_rgh, Initial residual = 0.00344821, Final residual = 2.69712e-10, No Iterations 5
time step continuity errors : sum local = 1.4302e-11, global = 3.23649e-13, cumulative = -1.89377e-11
ExecutionTime = 16.971 s  ClockTime = 17 s

Courant Number mean: 0.0273828 max: 0.878841
Interface Courant Number mean: 0.0020661 max: 0.501624
deltaT = 3.03325e-05
Time = 0.00197125s

MULES: Solving for alpha.water
MULES: Solving for alpha.water
Phase-1 volume fraction = 0.500257  Min(alpha.water) = -4.97325e-16  Max(alpha.water) = 1
MULES: Solving for alpha.water
MULES: Solving for alpha.water
Phase-1 volume fraction = 0.500257  Min(alpha.water) = -4.72179e-16  Max(alpha.water) = 1
GAMG:  Solving for p_rgh, Initial residual = 0.00972375, Final residual = 3.68222e-05, No Iterations 2
time step continuity errors : sum local = 1.93154e-06, global = 2.06181e-09
GAMGPCG:  Solving for p_rgh, Initial residual = 0.00336027, Final residual = 2.0381e-10, No Iterations 5
time step continuity errors : sum local = 1.06486e-11, global = 9.37197e-13, cumulative = -1.80005e-11
ExecutionTime = 17.1675 s  ClockTime = 18 s

Courant Number mean: 0.0272443 max: 0.872216
Interface Courant Number mean: 0.00202539 max: 0.496082
deltaT = 3.05718e-05
Time = 0.00200182s

MULES: Solving for alpha.water
MULES: Solving for alpha.water
Phase-1 volume fraction = 0.500257  Min(alpha.water) = -4.48175e-16  Max(alpha.water) = 1
MULES: Solving for alpha.water
MULES: Solving for alpha.water
Phase-1 volume fraction = 0.500257  Min(alpha.water) = -4.2539e-16  Max(alpha.water) = 1
GAMG:  Solving for p_rgh, Initial residual = 0.010109, Final residual = 5.36552e-05, No Iterations 2
time step continuity errors : sum local = 2.8358e-06, global = -3.58357e-08
GAMGPCG:  Solving for p_rgh, Initial residual = 0.00345584, Final residual = 1.93698e-10, No Iterations 5
time step continuity errors : sum local = 1.02085e-11, global = 2.99273e-14, cumulative = -1.79706e-11
ExecutionTime = 17.371 s  ClockTime = 18 s

Courant Number mean: 0.0274062 max: 0.876285
Interface Courant Number mean: 0.00201657 max: 0.527496
deltaT = 2.89751e-05
Time = 0.00203079s

MULES: Solving for alpha.water
MULES: Solving for alpha.water
[...]
Phase-1 volume fraction = 0.500071  Min(alpha.water) = -1.61075e-12  Max(alpha.water) = 1
GAMG:  Solving for p_rgh, Initial residual = 0.00432932, Final residual = 2.8083e-05, No Iterations 2
time step continuity errors : sum local = 2.12186e-07, global = -4.72277e-09
GAMGPCG:  Solving for p_rgh, Initial residual = 0.00130866, Final residual = 1.49762e-09, No Iterations 4
time step continuity errors : sum local = 1.13082e-11, global = 3.37914e-13, cumulative = -3.5948e-11
ExecutionTime = 711.002 s  ClockTime = 751 s

Courant Number mean: 0.0186064 max: 0.502593
Interface Courant Number mean: 0.00109778 max: 0.502593
deltaT = 1.12134e-05
Time = 0.0669528s

MULES: Solving for alpha.water
MULES: Solving for alpha.water
Phase-1 volume fraction = 0.500071  Min(alpha.water) = -1.5925e-12  Max(alpha.water) = 1
MULES: Solving for alpha.water
MULES: Solving for alpha.water
Phase-1 volume fraction = 0.500071  Min(alpha.water) = -1.57445e-12  Max(alpha.water) = 1
GAMG:  Solving for p_rgh, Initial residual = 0.00419924, Final residual = 2.30933e-05, No Iterations 2
time step continuity errors : sum local = 1.72461e-07, global = -5.85973e-09
GAMGPCG:  Solving for p_rgh, Initial residual = 0.001283, Final residual = 1.50608e-10, No Iterations 5
time step continuity errors : sum local = 1.12384e-12, global = -1.71065e-14, cumulative = -3.59651e-11
ExecutionTime = 711.201 s  ClockTime = 752 s

Courant Number mean: 0.0185013 max: 0.501811
Interface Courant Number mean: 0.00108859 max: 0.501811
deltaT = 1.11723e-05
Time = 0.0669639s

MULES: Solving for alpha.water
MULES: Solving for alpha.water
Phase-1 volume fraction = 0.500071  Min(alpha.water) = -1.5564e-12  Max(alpha.water) = 1
MULES: Solving for alpha.water
MULES: Solving for alpha.water
Phase-1 volume fraction = 0.500071  Min(alpha.water) = -1.53855e-12  Max(alpha.water) = 1
GAMG:  Solving for p_rgh, Initial residual = 0.00403381, Final residual = 2.05418e-05, No Iterations 2
time step continuity errors : sum local = 1.52099e-07, global = -4.81514e-09
GAMGPCG:  Solving for p_rgh, Initial residual = 0.0012485, Final residual = 9.29181e-10, No Iterations 4
time step continuity errors : sum local = 6.87076e-12, global = -3.51619e-13, cumulative = -3.63167e-11
ExecutionTime = 711.393 s  ClockTime = 752 s

Courant Number mean: 0.0184245 max: 0.50112
Interface Courant Number mean: 0.00108234 max: 0.50112
deltaT = 1.11471e-05
Time = 0.0669751s

MULES: Solving for alpha.water
MULES: Solving for alpha.water
Phase-1 volume fraction = 0.500071  Min(alpha.water) = -1.52068e-12  Max(alpha.water) = 1
MULES: Solving for alpha.water
MULES: Solving for alpha.water
Phase-1 volume fraction = 0.500071  Min(alpha.water) = -1.50301e-12  Max(alpha.water) = 1
GAMG:  Solving for p_rgh, Initial residual = 0.00405631, Final residual = 2.08056e-05, No Iterations 2
time step continuity errors : sum local = 1.52974e-07, global = -2.95455e-08
GAMGPCG:  Solving for p_rgh, Initial residual = 0.00137267, Final residual = 1.73325e-10, No Iterations 5
time step continuity errors : sum local = 1.27323e-12, global = -5.69756e-14, cumulative = -3.63737e-11
ExecutionTime = 711.598 s  ClockTime = 752 s

Courant Number mean: 0.0183735 max: 0.500331
Interface Courant Number mean: 0.0010783 max: 0.500331
deltaT = 1.11397e-05
Time = 0.0669862s

MULES: Solving for alpha.water
MULES: Solving for alpha.water
Phase-1 volume fraction = 0.500071  Min(alpha.water) = -1.48533e-12  Max(alpha.water) = 1
MULES: Solving for alpha.water
MULES: Solving for alpha.water
Phase-1 volume fraction = 0.500071  Min(alpha.water) = -1.46786e-12  Max(alpha.water) = 1
GAMG:  Solving for p_rgh, Initial residual = 0.00426827, Final residual = 2.57198e-05, No Iterations 2
time step continuity errors : sum local = 1.88199e-07, global = 4.36886e-12
GAMGPCG:  Solving for p_rgh, Initial residual = 0.00134893, Final residual = 1.27967e-09, No Iterations 4
time step continuity errors : sum local = 9.34704e-12, global = -7.2018e-13, cumulative = -3.70939e-11
ExecutionTime = 711.804 s  ClockTime = 752 s

Courant Number mean: 0.0183509 max: 0.499656
Interface Courant Number mean: 0.00107617 max: 0.499656
deltaT = 1.11471e-05
Time = 0.0669974s

MULES: Solving for alpha.water
MULES: Solving for alpha.water
Phase-1 volume fraction = 0.500071  Min(alpha.water) = -1.45037e-12  Max(alpha.water) = 1
MULES: Solving for alpha.water
MULES: Solving for alpha.water
Phase-1 volume fraction = 0.500071  Min(alpha.water) = -1.43309e-12  Max(alpha.water) = 1
GAMG:  Solving for p_rgh, Initial residual = 0.0043993, Final residual = 3.28394e-05, No Iterations 2
time step continuity errors : sum local = 2.39521e-07, global = -8.53507e-10
GAMGPCG:  Solving for p_rgh, Initial residual = 0.00144251, Final residual = 1.19947e-10, No Iterations 5
time step continuity errors : sum local = 8.73551e-13, global = -1.87512e-14, cumulative = -3.71126e-11
ExecutionTime = 712.013 s  ClockTime = 753 s

Courant Number mean: 0.0183509 max: 0.499018
Interface Courant Number mean: 0.00106056 max: 0.499018
deltaT = 1.11689e-05
Time = 0.0670085s

MULES: Solving for alpha.water
MULES: Solving for alpha.water
Phase-1 volume fraction = 0.500071  Min(alpha.water) = -1.41579e-12  Max(alpha.water) = 1
MULES: Solving for alpha.water
MULES: Solving for alpha.water
Phase-1 volume fraction = 0.500071  Min(alpha.water) = -1.39869e-12  Max(alpha.water) = 1
GAMG:  Solving for p_rgh, Initial residual = 0.0041474, Final residual = 2.90299e-05, No Iterations 2
time step continuity errors : sum local = 2.11632e-07, global = 2.10664e-10
GAMGPCG:  Solving for p_rgh, Initial residual = 0.00142545, Final residual = 1.52279e-09, No Iterations 4
time step continuity errors : sum local = 1.10865e-11, global = 4.54559e-13, cumulative = -3.66581e-11
ExecutionTime = 712.208 s  ClockTime = 753 s

Courant Number mean: 0.0183731 max: 0.497376
Interface Courant Number mean: 0.00106305 max: 0.497376
deltaT = 1.12272e-05
Time = 0.0670198s

MULES: Solving for alpha.water
MULES: Solving for alpha.water
Phase-1 volume fraction = 0.500071  Min(alpha.water) = -1.38155e-12  Max(alpha.water) = 1
MULES: Solving for alpha.water
MULES: Solving for alpha.water
Phase-1 volume fraction = 0.500071  Min(alpha.water) = -1.36461e-12  Max(alpha.water) = 1
GAMG:  Solving for p_rgh, Initial residual = 0.00437085, Final residual = 2.52788e-05, No Iterations 2
time step continuity errors : sum local = 1.85554e-07, global = -1.35229e-10
GAMGPCG:  Solving for p_rgh, Initial residual = 0.00140305, Final residual = 1.64313e-10, No Iterations 5
time step continuity errors : sum local = 1.2051e-12, global = 7.14e-15, cumulative = -3.66509e-11
ExecutionTime = 712.414 s  ClockTime = 753 s

Courant Number mean: 0.0184554 max: 0.496211
Interface Courant Number mean: 0.00107467 max: 0.496211
deltaT = 1.13125e-05
Time = 0.0670311s

MULES: Solving for alpha.water
MULES: Solving for alpha.water
Phase-1 volume fraction = 0.500071  Min(alpha.water) = -1.34761e-12  Max(alpha.water) = 1
MULES: Solving for alpha.water
MULES: Solving for alpha.water
Phase-1 volume fraction = 0.500071  Min(alpha.water) = -1.33082e-12  Max(alpha.water) = 1
GAMG:  Solving for p_rgh, Initial residual = 0.00532545, Final residual = 3.27626e-05, No Iterations 3
time step continuity errors : sum local = 2.43796e-07, global = -3.24818e-09
GAMGPCG:  Solving for p_rgh, Initial residual = 0.00201689, Final residual = 1.95568e-10, No Iterations 5
time step continuity errors : sum local = 1.45115e-12, global = -5.17904e-15, cumulative = -3.66561e-11
ExecutionTime = 712.623 s  ClockTime = 753 s

Courant Number mean: 0.0185752 max: 0.495571
Interface Courant Number mean: 0.00107873 max: 0.495571
deltaT = 1.14134e-05
Time = 0.0670425s

MULES: Solving for alpha.water
MULES: Solving for alpha.water
Phase-1 volume fraction = 0.500071  Min(alpha.water) = -1.31395e-12  Max(alpha.water) = 1
MULES: Solving for alpha.water
MULES: Solving for alpha.water
Phase-1 volume fraction = 0.500071  Min(alpha.water) = -1.2973e-12  Max(alpha.water) = 1
GAMG:  Solving for p_rgh, Initial residual = 0.00523227, Final residual = 2.84723e-05, No Iterations 2
time step continuity errors : sum local = 2.14506e-07, global = -9.06608e-10
GAMGPCG:  Solving for p_rgh, Initial residual = 0.00162339, Final residual = 1.84589e-10, No Iterations 5
time step continuity errors : sum local = 1.39042e-12, global = 7.15285e-14, cumulative = -3.65846e-11
ExecutionTime = 712.83 s  ClockTime = 754 s

Courant Number mean: 0.0187172 max: 0.495223
Interface Courant Number mean: 0.00108436 max: 0.495223
deltaT = 1.15234e-05
Time = 0.067054s

MULES: Solving for alpha.water
MULES: Solving for alpha.water
Phase-1 volume fraction = 0.500071  Min(alpha.water) = -1.28057e-12  Max(alpha.water) = 1
MULES: Solving for alpha.water
MULES: Solving for alpha.water
Phase-1 volume fraction = 0.500071  Min(alpha.water) = -1.26406e-12  Max(alpha.water) = 1
GAMG:  Solving for p_rgh, Initial residual = 0.00523071, Final residual = 3.73699e-05, No Iterations 2
time step continuity errors : sum local = 2.86593e-07, global = 2.14362e-09
GAMGPCG:  Solving for p_rgh, Initial residual = 0.00172315, Final residual = 9.13102e-11, No Iterations 5
time step continuity errors : sum local = 6.99704e-13, global = -4.90244e-15, cumulative = -3.65895e-11
ExecutionTime = 713.033 s  ClockTime = 754 s

Courant Number mean: 0.0188701 max: 0.494909
Interface Courant Number mean: 0.00110101 max: 0.494909
deltaT = 1.16415e-05
Time = 0.0670657s

MULES: Solving for alpha.water
MULES: Solving for alpha.water
Phase-1 volume fraction = 0.500071  Min(alpha.water) = -1.24748e-12  Max(alpha.water) = 1
MULES: Solving for alpha.water
MULES: Solving for alpha.water
Phase-1 volume fraction = 0.500071  Min(alpha.water) = -1.23112e-12  Max(alpha.water) = 1
GAMG:  Solving for p_rgh, Initial residual = 0.00493252, Final residual = 2.31021e-05, No Iterations 2
time step continuity errors : sum local = 1.80106e-07, global = 3.03013e-09
GAMGPCG:  Solving for p_rgh, Initial residual = 0.00161356, Final residual = 2.06305e-10, No Iterations 5
time step continuity errors : sum local = 1.61019e-12, global = 2.09041e-14, cumulative = -3.65686e-11
ExecutionTime = 713.237 s  ClockTime = 754 s

Courant Number mean: 0.0190356 max: 0.494303
Interface Courant Number mean: 0.00110915 max: 0.494303
deltaT = 1.17756e-05
Time = 0.0670774s

MULES: Solving for alpha.water
MULES: Solving for alpha.water
Phase-1 volume fraction = 0.500071  Min(alpha.water) = -1.2147e-12  Max(alpha.water) = 1
MULES: Solving for alpha.water
MULES: Solving for alpha.water
Phase-1 volume fraction = 0.500071  Min(alpha.water) = -1.19851e-12  Max(alpha.water) = 1
GAMG:  Solving for p_rgh, Initial residual = 0.00516297, Final residual = 3.69212e-05, No Iterations 2
time step continuity errors : sum local = 2.94251e-07, global = -2.11131e-09
GAMGPCG:  Solving for p_rgh, Initial residual = 0.00162699, Final residual = 1.1335e-10, No Iterations 5
time step continuity errors : sum local = 9.02603e-13, global = -1.95548e-14, cumulative = -3.65881e-11
ExecutionTime = 713.441 s  ClockTime = 754 s

Courant Number mean: 0.0192268 max: 0.4937
Interface Courant Number mean: 0.00113309 max: 0.4937
deltaT = 1.19253e-05
Time = 0.0670894s

MULES: Solving for alpha.water
MULES: Solving for alpha.water
Phase-1 volume fraction = 0.500071  Min(alpha.water) = -1.18224e-12  Max(alpha.water) = 1
MULES: Solving for alpha.water
MULES: Solving for alpha.water
Phase-1 volume fraction = 0.500071  Min(alpha.water) = -1.1662e-12  Max(alpha.water) = 1
GAMG:  Solving for p_rgh, Initial residual = 0.00480061, Final residual = 2.59336e-05, No Iterations 2
time step continuity errors : sum local = 2.115e-07, global = 2.97561e-09
GAMGPCG:  Solving for p_rgh, Initial residual = 0.00149547, Final residual = 1.74037e-10, No Iterations 5
time step continuity errors : sum local = 1.41989e-12, global = -2.0083e-14, cumulative = -3.66082e-11
ExecutionTime = 713.65 s  ClockTime = 754 s

Courant Number mean: 0.0194434 max: 0.492985
Interface Courant Number mean: 0.00114484 max: 0.492985
deltaT = 1.20949e-05
Time = 0.0671014s

MULES: Solving for alpha.water
MULES: Solving for alpha.water
Phase-1 volume fraction = 0.500071  Min(alpha.water) = -1.15008e-12  Max(alpha.water) = 1
MULES: Solving for alpha.water
MULES: Solving for alpha.water
Phase-1 volume fraction = 0.500071  Min(alpha.water) = -1.13419e-12  Max(alpha.water) = 1
GAMG:  Solving for p_rgh, Initial residual = 0.0043427, Final residual = 2.51934e-05, No Iterations 2
time step continuity errors : sum local = 2.10917e-07, global = -4.43869e-09
GAMGPCG:  Solving for p_rgh, Initial residual = 0.00138854, Final residual = 1.20725e-10, No Iterations 5
time step continuity errors : sum local = 1.01021e-12, global = 4.02281e-14, cumulative = -3.6568e-11
ExecutionTime = 713.857 s  ClockTime = 755 s

Courant Number mean: 0.019691 max: 0.492238
Interface Courant Number mean: 0.00115069 max: 0.492238
deltaT = 1.2285e-05
Time = 0.0671137s

MULES: Solving for alpha.water
MULES: Solving for alpha.water
Phase-1 volume fraction = 0.500071  Min(alpha.water) = -1.11821e-12  Max(alpha.water) = 1
MULES: Solving for alpha.water
MULES: Solving for alpha.water
Phase-1 volume fraction = 0.500071  Min(alpha.water) = -1.10246e-12  Max(alpha.water) = 1
GAMG:  Solving for p_rgh, Initial residual = 0.00481651, Final residual = 3.29395e-05, No Iterations 2
time step continuity errors : sum local = 2.8386e-07, global = -1.43841e-08
GAMGPCG:  Solving for p_rgh, Initial residual = 0.00159182, Final residual = 2.21815e-10, No Iterations 5
time step continuity errors : sum local = 1.91092e-12, global = 5.57982e-14, cumulative = -3.65122e-11
ExecutionTime = 714.067 s  ClockTime = 755 s

Courant Number mean: 0.0199681 max: 0.489512
Interface Courant Number mean: 0.00116846 max: 0.489512
deltaT = 1.25479e-05
Time = 0.0671263s

MULES: Solving for alpha.water
MULES: Solving for alpha.water
Phase-1 volume fraction = 0.500071  Min(alpha.water) = -1.08656e-12  Max(alpha.water) = 1
MULES: Solving for alpha.water
MULES: Solving for alpha.water
Phase-1 volume fraction = 0.500071  Min(alpha.water) = -1.07089e-12  Max(alpha.water) = 1
GAMG:  Solving for p_rgh, Initial residual = 0.00504268, Final residual = 3.94153e-05, No Iterations 2
time step continuity errors : sum local = 3.54181e-07, global = -5.62929e-09
GAMGPCG:  Solving for p_rgh, Initial residual = 0.00163101, Final residual = 2.90372e-10, No Iterations 5
time step continuity errors : sum local = 2.60849e-12, global = 4.31043e-14, cumulative = -3.64691e-11
ExecutionTime = 714.273 s  ClockTime = 755 s

Courant Number mean: 0.020366 max: 0.489295
Interface Courant Number mean: 0.00119181 max: 0.489295
deltaT = 1.28224e-05
Time = 0.0671391s

MULES: Solving for alpha.water
MULES: Solving for alpha.water
Phase-1 volume fraction = 0.500071  Min(alpha.water) = -1.0551e-12  Max(alpha.water) = 1
MULES: Solving for alpha.water
MULES: Solving for alpha.water
Phase-1 volume fraction = 0.500071  Min(alpha.water) = -1.03954e-12  Max(alpha.water) = 1
GAMG:  Solving for p_rgh, Initial residual = 0.004866, Final residual = 2.26555e-05, No Iterations 2
time step continuity errors : sum local = 2.12168e-07, global = -4.84565e-09
GAMGPCG:  Solving for p_rgh, Initial residual = 0.00149965, Final residual = 2.24088e-10, No Iterations 5
time step continuity errors : sum local = 2.09833e-12, global = -5.84382e-14, cumulative = -3.65275e-11
ExecutionTime = 714.477 s  ClockTime = 755 s

Courant Number mean: 0.0207815 max: 0.489604
Interface Courant Number mean: 0.00120638 max: 0.489604
deltaT = 1.30942e-05
Time = 0.0671522s

MULES: Solving for alpha.water
MULES: Solving for alpha.water
Phase-1 volume fraction = 0.500071  Min(alpha.water) = -1.02389e-12  Max(alpha.water) = 1
MULES: Solving for alpha.water
MULES: Solving for alpha.water
Phase-1 volume fraction = 0.500071  Min(alpha.water) = -1.00847e-12  Max(alpha.water) = 1
GAMG:  Solving for p_rgh, Initial residual = 0.00469315, Final residual = 2.80772e-05, No Iterations 2
time step continuity errors : sum local = 2.73877e-07, global = 2.51584e-09
GAMGPCG:  Solving for p_rgh, Initial residual = 0.00148285, Final residual = 1.64934e-10, No Iterations 5
time step continuity errors : sum local = 1.60939e-12, global = 8.76801e-14, cumulative = -3.64398e-11
ExecutionTime = 714.679 s  ClockTime = 756 s

Courant Number mean: 0.0211901 max: 0.484546
Interface Courant Number mean: 0.00123154 max: 0.484546
deltaT = 1.35113e-05
Time = 0.0671657s

MULES: Solving for alpha.water
MULES: Solving for alpha.water
Phase-1 volume fraction = 0.500071  Min(alpha.water) = -9.92825e-13  Max(alpha.water) = 1
MULES: Solving for alpha.water
MULES: Solving for alpha.water
Phase-1 volume fraction = 0.500071  Min(alpha.water) = -9.77423e-13  Max(alpha.water) = 1
GAMG:  Solving for p_rgh, Initial residual = 0.00480832, Final residual = 2.38645e-05, No Iterations 2
time step continuity errors : sum local = 2.47481e-07, global = 7.65598e-09
GAMGPCG:  Solving for p_rgh, Initial residual = 0.001528, Final residual = 1.54464e-10, No Iterations 5
time step continuity errors : sum local = 1.60193e-12, global = 3.42519e-14, cumulative = -3.64056e-11
ExecutionTime = 714.883 s  ClockTime = 756 s

Courant Number mean: 0.0218283 max: 0.481946
Interface Courant Number mean: 0.00127541 max: 0.481946
deltaT = 1.40167e-05
Time = 0.0671797s

MULES: Solving for alpha.water
MULES: Solving for alpha.water
Phase-1 volume fraction = 0.500071  Min(alpha.water) = -9.6173e-13  Max(alpha.water) = 1
MULES: Solving for alpha.water
MULES: Solving for alpha.water
Phase-1 volume fraction = 0.500071  Min(alpha.water) = -9.46289e-13  Max(alpha.water) = 1
GAMG:  Solving for p_rgh, Initial residual = 0.00529025, Final residual = 2.91738e-05, No Iterations 2
time step continuity errors : sum local = 3.24805e-07, global = 6.28147e-09
GAMGPCG:  Solving for p_rgh, Initial residual = 0.00160739, Final residual = 1.40584e-10, No Iterations 5
time step continuity errors : sum local = 1.56433e-12, global = 2.26205e-14, cumulative = -3.6383e-11
ExecutionTime = 715.09 s  ClockTime = 756 s

Courant Number mean: 0.0226037 max: 0.479451
Interface Courant Number mean: 0.00131941 max: 0.479451
deltaT = 1.46174e-05
Time = 0.0671943s

MULES: Solving for alpha.water
MULES: Solving for alpha.water
Phase-1 volume fraction = 0.500071  Min(alpha.water) = -9.3048e-13  Max(alpha.water) = 1
MULES: Solving for alpha.water
MULES: Solving for alpha.water
Phase-1 volume fraction = 0.500071  Min(alpha.water) = -9.14936e-13  Max(alpha.water) = 1
GAMG:  Solving for p_rgh, Initial residual = 0.00557688, Final residual = 3.51136e-05, No Iterations 2
time step continuity errors : sum local = 4.23639e-07, global = 1.14438e-08
GAMGPCG:  Solving for p_rgh, Initial residual = 0.00171515, Final residual = 1.25081e-10, No Iterations 5
time step continuity errors : sum local = 1.50829e-12, global = -4.10904e-14, cumulative = -3.64241e-11
ExecutionTime = 715.292 s  ClockTime = 756 s

Courant Number mean: 0.0235298 max: 0.478119
Interface Courant Number mean: 0.00138928 max: 0.478119
deltaT = 1.5286e-05
Time = 0.0672096s

MULES: Solving for alpha.water
MULES: Solving for alpha.water
Phase-1 volume fraction = 0.500071  Min(alpha.water) = -8.99011e-13  Max(alpha.water) = 1
MULES: Solving for alpha.water
MULES: Solving for alpha.water
Phase-1 volume fraction = 0.500071  Min(alpha.water) = -8.83364e-13  Max(alpha.water) = 1
GAMG:  Solving for p_rgh, Initial residual = 0.00574109, Final residual = 3.49432e-05, No Iterations 2
time step continuity errors : sum local = 4.58821e-07, global = 3.09887e-09
GAMGPCG:  Solving for p_rgh, Initial residual = 0.00179918, Final residual = 1.15249e-10, No Iterations 5
time step continuity errors : sum local = 1.51342e-12, global = 4.66736e-14, cumulative = -3.63774e-11
ExecutionTime = 715.494 s  ClockTime = 756 s

Courant Number mean: 0.0245602 max: 0.476368
Interface Courant Number mean: 0.0014494 max: 0.475835
deltaT = 1.6061e-05
Time = 0.0672257s

