## SLURM PROLOG ###############################################################
##    Job ID : 243786
##  Job Name : case_H0.0083_D0.0083_flat_tilt_T15.0_m0.0001
##  Nodelist : node2343
##      CPUs : 1
##  Mem/Node : 6144 MB
## Directory : /oscar/data/dharri15/eaguerov/examples/openfoam/openfoam-test
##   Job Started : Mon Feb  2 11:04:12 AM EST 2026
###############################################################################
Case: case_H0.0083_D0.0083_flat_tilt_T15.0_m0.0001
Starting fresh simulation...
# commands to be run in OpenFOAM environment
of13  gmshToFoam cylinder.msh
/*---------------------------------------------------------------------------*\
  =========                 |
  \\      /  F ield         | OpenFOAM: The Open Source CFD Toolbox
   \\    /   O peration     | Website:  https://openfoam.org
    \\  /    A nd           | Version:  13
     \\/     M anipulation  |
\*---------------------------------------------------------------------------*/
Build  : 13-cde978a97c93
Exec   : gmshToFoam cylinder.msh
Date   : Feb 02 2026
Time   : 11:04:13
Host   : "node2343.oscar.ccv.brown.edu"
PID    : 3969121
I/O    : uncollated
Case   : //work
nProcs : 1
sigFpe : Enabling floating point exception trapping (FOAM_SIGFPE).
fileModificationChecking : Monitoring run-time modified files using timeStampMaster (fileModificationSkew 10)
allowSystemOperations : Allowing user-supplied system call operations

// * * * * * * * * * * * * * * * * * * * * * * * * * * * * * * * * * * * * * //
Create time

--> FOAM Warning : 
    From function Foam::functionObjectList::functionObjectList(const Foam::Time&, bool)
    in file db/functionObjects/functionObjectList/functionObjectList.C at line 253
    Both "system/functions" and "system/controlDict/functions" found, the latter will be ignored.
Starting to read mesh format at line 2
Read format version 2.2  ascii 0

Starting to read physical names at line 5
Physical names:3
    Surface 1	atmosphere
    Surface 2	walls
    Volume 3	internalMesh

Starting to read points at line 11
Vertices to be read:307392
Vertices read:307392

Starting to read cells at line 307406
Cells to be read:1793837

Mapping region 2 to Foam patch 0
Mapping region 1 to Foam patch 1
Mapping region 3 to Foam cellZone 0
Cells:
    total:1718513
    hex  :0
    prism:0
    pyr  :0
    tet  :1718513

CellZones:
Zone	Size
    0	1718513

Skipping tag  at line 2101246
Patch 0 gets name walls
Patch 1 gets name atmosphere

Finding faces of patch 0
Finding faces of patch 1

FaceZones:
Zone	Size

Writing zone 0 to cellZone internalMesh and cellSet
End

of13  setFields
/*---------------------------------------------------------------------------*\
  =========                 |
  \\      /  F ield         | OpenFOAM: The Open Source CFD Toolbox
   \\    /   O peration     | Website:  https://openfoam.org
    \\  /    A nd           | Version:  13
     \\/     M anipulation  |
\*---------------------------------------------------------------------------*/
Build  : 13-cde978a97c93
Exec   : setFields
Date   : Feb 02 2026
Time   : 11:04:27
Host   : "node2343.oscar.ccv.brown.edu"
PID    : 3970237
I/O    : uncollated
Case   : //work
nProcs : 1
sigFpe : Enabling floating point exception trapping (FOAM_SIGFPE).
fileModificationChecking : Monitoring run-time modified files using timeStampMaster (fileModificationSkew 10)
allowSystemOperations : Allowing user-supplied system call operations

// * * * * * * * * * * * * * * * * * * * * * * * * * * * * * * * * * * * * * //
Create time

--> FOAM Warning : 
    From function Foam::functionObjectList::functionObjectList(const Foam::Time&, bool)
    in file db/functionObjects/functionObjectList/functionObjectList.C at line 253
    Both "system/functions" and "system/controlDict/functions" found, the latter will be ignored.
Create mesh for time = 0

Reading "setFieldsDict"

Setting field default values
    Setting volScalarField::Internal alpha.water

Setting field zone values
Zone: water
    Setting volScalarField::Internal alpha.water

End

Running in serial...
/*---------------------------------------------------------------------------*\
  =========                 |
  \\      /  F ield         | OpenFOAM: The Open Source CFD Toolbox
   \\    /   O peration     | Website:  https://openfoam.org
    \\  /    A nd           | Version:  13
     \\/     M anipulation  |
\*---------------------------------------------------------------------------*/
Build  : 13-cde978a97c93
Exec   : foamRun
Date   : Feb 02 2026
Time   : 11:04:29
Host   : "node2343.oscar.ccv.brown.edu"
PID    : 3971359
I/O    : uncollated
Case   : //work
nProcs : 1
sigFpe : Enabling floating point exception trapping (FOAM_SIGFPE).
fileModificationChecking : Monitoring run-time modified files using timeStampMaster (fileModificationSkew 10)
allowSystemOperations : Allowing user-supplied system call operations

// * * * * * * * * * * * * * * * * * * * * * * * * * * * * * * * * * * * * * //
Create time

--> FOAM Warning : 
    From function Foam::functionObjectList::functionObjectList(const Foam::Time&, bool)
    in file db/functionObjects/functionObjectList/functionObjectList.C at line 253
    Both "system/functions" and "system/controlDict/functions" found, the latter will be ignored.
Create mesh for time = 0

Selecting fvMeshMover motionSolver
Selecting motion solver: solidBody
Selecting solid-body motion function sixDoFMotion
Selecting solver incompressibleVoF
Selecting viscosity model constant
Selecting viscosity model constant
No MRF models present

Courant Number mean: 0 max: 0
Interface Courant Number mean: 0 max: 0
Selecting turbulence model type laminar
    Selecting laminar stress model Stokes
GAMGPCG:  Solving for pcorr, Initial residual = 0, Final residual = 0, No Iterations 0

PIMPLE: No convergence criteria found


PIMPLE: Operating solver in transient mode with 1 outer corrector
PIMPLE: Operating solver in PISO mode



Starting time loop

Constructing face momentum Uf
Courant Number mean: 0 max: 0
Interface Courant Number mean: 0 max: 0
deltaT = 0.000119962
Time = 0.000119962s

Adaptive stop enabled: watching norm(U)/numel(U) and interface stillness (alpha.water).
[adaptive_stop] t=0 normU=0 maxDeltaAlpha=n/a
MULES: Solving for alpha.water
MULES: Solving for alpha.water
Phase-1 volume fraction = 0.499991  Min(alpha.water) = 0  Max(alpha.water) = 1
MULES: Solving for alpha.water
MULES: Solving for alpha.water
Phase-1 volume fraction = 0.499991  Min(alpha.water) = 0  Max(alpha.water) = 1
GAMG:  Solving for p_rgh, Initial residual = 1, Final residual = 0.00476685, No Iterations 2
time step continuity errors : sum local = 0.00438931, global = 9.891e-07
[adaptive_stop] t=0 normU=0 maxDeltaAlpha=n/a
GAMGPCG:  Solving for p_rgh, Initial residual = 0.160896, Final residual = 5.78127e-10, No Iterations 6
time step continuity errors : sum local = 1.24482e-09, global = -1.73445e-13, cumulative = -1.73445e-13
ExecutionTime = 59.2747 s  ClockTime = 60 s

Courant Number mean: 0.715568 max: 271.547
Interface Courant Number mean: 0 max: 0
deltaT = 4.41771e-07
Time = 0.000120403s

MULES: Solving for alpha.water
MULES: Solving for alpha.water
Phase-1 volume fraction = 0.499991  Min(alpha.water) = -2.05354e-18  Max(alpha.water) = 1
[adaptive_stop] t=0 normU=0 maxDeltaAlpha=n/a
MULES: Solving for alpha.water
MULES: Solving for alpha.water
Phase-1 volume fraction = 0.499991  Min(alpha.water) = -3.02758e-18  Max(alpha.water) = 1
GAMG:  Solving for p_rgh, Initial residual = 0.640971, Final residual = 0.00553301, No Iterations 2
time step continuity errors : sum local = 4.08328e-06, global = -3.23752e-09
GAMGPCG:  Solving for p_rgh, Initial residual = 0.133475, Final residual = 5.16989e-10, No Iterations 6
time step continuity errors : sum local = 1.30716e-12, global = 1.27111e-15, cumulative = -1.72174e-13
ExecutionTime = 99.3927 s  ClockTime = 100 s

Courant Number mean: 0.00205365 max: 0.694226
Interface Courant Number mean: 0.000212883 max: 0.641583
deltaT = 3.44282e-07
Time = 0.000120748s

[adaptive_stop] t=0 normU=0 maxDeltaAlpha=n/a
MULES: Solving for alpha.water
MULES: Solving for alpha.water
Phase-1 volume fraction = 0.499991  Min(alpha.water) = -1.01433e-18  Max(alpha.water) = 1
MULES: Solving for alpha.water
MULES: Solving for alpha.water
Phase-1 volume fraction = 0.499991  Min(alpha.water) = -9.80965e-19  Max(alpha.water) = 1
GAMG:  Solving for p_rgh, Initial residual = 0.023748, Final residual = 5.80956e-05, No Iterations 3
time step continuity errors : sum local = 4.23802e-07, global = 9.78097e-09
[adaptive_stop] t=0 normU=0 maxDeltaAlpha=n/a
GAMGPCG:  Solving for p_rgh, Initial residual = 0.0192243, Final residual = 1.31352e-09, No Iterations 5
time step continuity errors : sum local = 7.6625e-12, global = -8.70977e-15, cumulative = -1.80884e-13
ExecutionTime = 141.26 s  ClockTime = 142 s

Courant Number mean: 0.00145831 max: 0.466604
Interface Courant Number mean: 0.000139499 max: 0.422954
deltaT = 4.06997e-07
Time = 0.000121155s

MULES: Solving for alpha.water
MULES: Solving for alpha.water
Phase-1 volume fraction = 0.499991  Min(alpha.water) = -2.07876e-18  Max(alpha.water) = 1
MULES: Solving for alpha.water
MULES: Solving for alpha.water
Phase-1 volume fraction = 0.499991  Min(alpha.water) = -1.46206e-18  Max(alpha.water) = 1
GAMG:  Solving for p_rgh, Initial residual = 0.0315032, Final residual = 0.000295652, No Iterations 2
time step continuity errors : sum local = 1.21494e-06, global = 1.97349e-10
[adaptive_stop] t=0 normU=0 maxDeltaAlpha=n/a
GAMGPCG:  Solving for p_rgh, Initial residual = 0.0163671, Final residual = 1.64624e-09, No Iterations 5
time step continuity errors : sum local = 6.34429e-12, global = 5.93054e-16, cumulative = -1.80291e-13
ExecutionTime = 178.202 s  ClockTime = 179 s

Courant Number mean: 0.00161815 max: 0.495242
Interface Courant Number mean: 0.000155173 max: 0.430914
deltaT = 4.72248e-07
Time = 0.000121627s

MULES: Solving for alpha.water
MULES: Solving for alpha.water
Phase-1 volume fraction = 0.499991  Min(alpha.water) = -1.44665e-18  Max(alpha.water) = 1
MULES: Solving for alpha.water
MULES: Solving for alpha.water
Phase-1 volume fraction = 0.499991  Min(alpha.water) = -1.8622e-18  Max(alpha.water) = 1
[adaptive_stop] t=0 normU=0 maxDeltaAlpha=n/a
GAMG:  Solving for p_rgh, Initial residual = 0.0213663, Final residual = 0.000130657, No Iterations 2
time step continuity errors : sum local = 4.31758e-07, global = 1.25418e-11
GAMGPCG:  Solving for p_rgh, Initial residual = 0.00979754, Final residual = 8.15757e-10, No Iterations 5
time step continuity errors : sum local = 2.59785e-12, global = 1.87528e-15, cumulative = -1.78415e-13
ExecutionTime = 218.078 s  ClockTime = 220 s

Courant Number mean: 0.00176948 max: 0.513394
Interface Courant Number mean: 0.000170884 max: 0.430216
deltaT = 5.48849e-07
Time = 0.000122176s

[adaptive_stop] t=0.000121627 normU=0.101 maxDeltaAlpha=0.145
MULES: Solving for alpha.water
MULES: Solving for alpha.water
Phase-1 volume fraction = 0.499991  Min(alpha.water) = -2.04674e-18  Max(alpha.water) = 1
MULES: Solving for alpha.water
MULES: Solving for alpha.water
Phase-1 volume fraction = 0.499991  Min(alpha.water) = -2.13793e-18  Max(alpha.water) = 1
GAMG:  Solving for p_rgh, Initial residual = 0.0171615, Final residual = 0.000105362, No Iterations 2
time step continuity errors : sum local = 3.63182e-07, global = 1.54486e-10
[adaptive_stop] t=0.000121627 normU=0.101 maxDeltaAlpha=0.145
GAMGPCG:  Solving for p_rgh, Initial residual = 0.00781676, Final residual = 5.64785e-10, No Iterations 5
time step continuity errors : sum local = 1.89007e-12, global = -2.52412e-15, cumulative = -1.8094e-13
ExecutionTime = 256.858 s  ClockTime = 259 s

Courant Number mean: 0.00194113 max: 0.525937
Interface Courant Number mean: 0.000189634 max: 0.42993
deltaT = 6.383e-07
Time = 0.000122814s

MULES: Solving for alpha.water
MULES: Solving for alpha.water
Phase-1 volume fraction = 0.499991  Min(alpha.water) = -3.2214e-18  Max(alpha.water) = 1
MULES: Solving for alpha.water
MULES: Solving for alpha.water
Phase-1 volume fraction = 0.499991  Min(alpha.water) = -2.07972e-18  Max(alpha.water) = 1
GAMG:  Solving for p_rgh, Initial residual = 0.0164171, Final residual = 9.35876e-05, No Iterations 2
time step continuity errors : sum local = 3.59719e-07, global = 2.07129e-10
[adaptive_stop] t=0.000121627 normU=0.101 maxDeltaAlpha=0.145
GAMGPCG:  Solving for p_rgh, Initial residual = 0.00713275, Final residual = 6.7816e-10, No Iterations 5
time step continuity errors : sum local = 2.54336e-12, global = -1.99892e-15, cumulative = -1.82939e-13
ExecutionTime = 295.122 s  ClockTime = 297 s

Courant Number mean: 0.00213225 max: 0.56366
Interface Courant Number mean: 0.000211559 max: 0.423286
deltaT = 7.5398e-07
Time = 0.000123568s

MULES: Solving for alpha.water
MULES: Solving for alpha.water
Phase-1 volume fraction = 0.499991  Min(alpha.water) = -2.49928e-18  Max(alpha.water) = 1
MULES: Solving for alpha.water
MULES: Solving for alpha.water
Phase-1 volume fraction = 0.499991  Min(alpha.water) = -2.71766e-18  Max(alpha.water) = 1
[adaptive_stop] t=0.000121627 normU=0.101 maxDeltaAlpha=0.145
GAMG:  Solving for p_rgh, Initial residual = 0.016702, Final residual = 0.000105014, No Iterations 2
time step continuity errors : sum local = 4.82105e-07, global = 1.73468e-10
GAMGPCG:  Solving for p_rgh, Initial residual = 0.00682627, Final residual = 4.91383e-10, No Iterations 5
time step continuity errors : sum local = 2.20505e-12, global = 1.57293e-15, cumulative = -1.81366e-13
ExecutionTime = 336.567 s  ClockTime = 339 s

Courant Number mean: 0.00237844 max: 0.59357
Interface Courant Number mean: 0.000238665 max: 0.437418
deltaT = 8.61851e-07
Time = 0.00012443s

[adaptive_stop] t=0.000121627 normU=0.101 maxDeltaAlpha=0.145
MULES: Solving for alpha.water
MULES: Solving for alpha.water
Phase-1 volume fraction = 0.499991  Min(alpha.water) = -6.33637e-18  Max(alpha.water) = 1
MULES: Solving for alpha.water
MULES: Solving for alpha.water
Phase-1 volume fraction = 0.499991  Min(alpha.water) = -5.85306e-18  Max(alpha.water) = 1
GAMG:  Solving for p_rgh, Initial residual = 0.0163617, Final residual = 0.000103859, No Iterations 2
time step continuity errors : sum local = 5.42698e-07, global = 2.54495e-10
GAMGPCG:  Solving for p_rgh, Initial residual = 0.00653281, Final residual = 6.55404e-10, No Iterations 5
time step continuity errors : sum local = 3.36013e-12, global = -1.17455e-15, cumulative = -1.8254e-13
ExecutionTime = 373.046 s  ClockTime = 375 s

Courant Number mean: 0.00257024 max: 0.602434
Interface Courant Number mean: 0.000263194 max: 0.45024
deltaT = 9.57099e-07
Time = 0.000125387s

[adaptive_stop] t=0.000121627 normU=0.101 maxDeltaAlpha=0.145
MULES: Solving for alpha.water
MULES: Solving for alpha.water
Phase-1 volume fraction = 0.499991  Min(alpha.water) = -2.94771e-18  Max(alpha.water) = 1
MULES: Solving for alpha.water
MULES: Solving for alpha.water
Phase-1 volume fraction = 0.499991  Min(alpha.water) = -4.27986e-18  Max(alpha.water) = 1
GAMG:  Solving for p_rgh, Initial residual = 0.0159251, Final residual = 9.77749e-05, No Iterations 2
time step continuity errors : sum local = 5.61621e-07, global = 5.00184e-10
[adaptive_stop] t=0.000121627 normU=0.101 maxDeltaAlpha=0.145
GAMGPCG:  Solving for p_rgh, Initial residual = 0.00621645, Final residual = 4.64126e-10, No Iterations 5
time step continuity errors : sum local = 2.62452e-12, global = -1.09864e-15, cumulative = -1.83639e-13
ExecutionTime = 414.186 s  ClockTime = 417 s

Courant Number mean: 0.00270503 max: 0.64159
Interface Courant Number mean: 0.000286194 max: 0.508699
deltaT = 9.40729e-07
Time = 0.000126328s

MULES: Solving for alpha.water
MULES: Solving for alpha.water
Phase-1 volume fraction = 0.499991  Min(alpha.water) = -2.33273e-18  Max(alpha.water) = 1
MULES: Solving for alpha.water
MULES: Solving for alpha.water
Phase-1 volume fraction = 0.499991  Min(alpha.water) = -3.18152e-18  Max(alpha.water) = 1
[adaptive_stop] t=0.000125387 normU=0.0682 maxDeltaAlpha=0.119
GAMG:  Solving for p_rgh, Initial residual = 0.0145956, Final residual = 9.32041e-05, No Iterations 2
time step continuity errors : sum local = 4.72234e-07, global = 2.49046e-10
GAMGPCG:  Solving for p_rgh, Initial residual = 0.00564673, Final residual = 4.11409e-10, No Iterations 5
time step continuity errors : sum local = 2.06345e-12, global = -5.34484e-16, cumulative = -1.84173e-13
ExecutionTime = 451.134 s  ClockTime = 454 s

Courant Number mean: 0.00253917 max: 0.604765
Interface Courant Number mean: 0.000277135 max: 0.510965
deltaT = 9.20542e-07
Time = 0.000127248s

MULES: Solving for alpha.water
[adaptive_stop] t=0.000125387 normU=0.0682 maxDeltaAlpha=0.119
MULES: Solving for alpha.water
Phase-1 volume fraction = 0.499991  Min(alpha.water) = -2.03041e-09  Max(alpha.water) = 1
MULES: Solving for alpha.water
MULES: Solving for alpha.water
Phase-1 volume fraction = 0.499991  Min(alpha.water) = -1.82837e-09  Max(alpha.water) = 1
GAMG:  Solving for p_rgh, Initial residual = 0.0134756, Final residual = 8.6133e-05, No Iterations 2
time step continuity errors : sum local = 3.90951e-07, global = 2.30649e-10
GAMGPCG:  Solving for p_rgh, Initial residual = 0.00495601, Final residual = 3.67804e-10, No Iterations 5
time step continuity errors : sum local = 1.6545e-12, global = 3.39298e-16, cumulative = -1.83834e-13
ExecutionTime = 492.064 s  ClockTime = 495 s

Courant Number mean: 0.00238735 max: 0.566359
Interface Courant Number mean: 0.000266905 max: 0.495749
deltaT = 9.28432e-07
Time = 0.000128177s

[adaptive_stop] t=0.000125387 normU=0.0682 maxDeltaAlpha=0.119
MULES: Solving for alpha.water
MULES: Solving for alpha.water
Phase-1 volume fraction = 0.499991  Min(alpha.water) = -1.64459e-09  Max(alpha.water) = 1
MULES: Solving for alpha.water
MULES: Solving for alpha.water
Phase-1 volume fraction = 0.499991  Min(alpha.water) = -1.47696e-09  Max(alpha.water) = 1
GAMG:  Solving for p_rgh, Initial residual = 0.0125394, Final residual = 6.72791e-05, No Iterations 2
time step continuity errors : sum local = 2.90769e-07, global = 1.63311e-10
[adaptive_stop] t=0.000125387 normU=0.0682 maxDeltaAlpha=0.119
GAMGPCG:  Solving for p_rgh, Initial residual = 0.00460143, Final residual = 3.28159e-10, No Iterations 5
time step continuity errors : sum local = 1.40614e-12, global = 3.28444e-16, cumulative = -1.83506e-13
ExecutionTime = 530.506 s  ClockTime = 534 s

Courant Number mean: 0.00232419 max: 0.548541
Interface Courant Number mean: 0.000266972 max: 0.480556
deltaT = 9.65998e-07
Time = 0.000129143s

MULES: Solving for alpha.water
MULES: Solving for alpha.water
Phase-1 volume fraction = 0.499991  Min(alpha.water) = -1.31467e-09  Max(alpha.water) = 1
MULES: Solving for alpha.water
MULES: Solving for alpha.water
Phase-1 volume fraction = 0.499991  Min(alpha.water) = -1.16765e-09  Max(alpha.water) = 1
GAMG:  Solving for p_rgh, Initial residual = 0.0122555, Final residual = 6.81029e-05, No Iterations 2
time step continuity errors : sum local = 2.96405e-07, global = 2.31075e-10
[adaptive_stop] t=0.000125387 normU=0.0682 maxDeltaAlpha=0.119
GAMGPCG:  Solving for p_rgh, Initial residual = 0.00445026, Final residual = 2.91947e-10, No Iterations 5
time step continuity errors : sum local = 1.25956e-12, global = -6.58274e-16, cumulative = -1.84164e-13
ExecutionTime = 569.917 s  ClockTime = 574 s

Courant Number mean: 0.00234085 max: 0.551643
Interface Courant Number mean: 0.000277828 max: 0.476259
deltaT = 1.01415e-06
Time = 0.000130157s

MULES: Solving for alpha.water
MULES: Solving for alpha.water
Phase-1 volume fraction = 0.499991  Min(alpha.water) = -1.0237e-09  Max(alpha.water) = 1
[adaptive_stop] t=0.000125387 normU=0.0682 maxDeltaAlpha=0.119
MULES: Solving for alpha.water
MULES: Solving for alpha.water
Phase-1 volume fraction = 0.499991  Min(alpha.water) = -8.94574e-10  Max(alpha.water) = 1
GAMG:  Solving for p_rgh, Initial residual = 0.0120969, Final residual = 6.30229e-05, No Iterations 2
time step continuity errors : sum local = 2.79499e-07, global = 2.15907e-10
GAMGPCG:  Solving for p_rgh, Initial residual = 0.00438754, Final residual = 3.05087e-10, No Iterations 5
time step continuity errors : sum local = 1.34125e-12, global = 6.10342e-16, cumulative = -1.83553e-13
ExecutionTime = 611.067 s  ClockTime = 615 s

Courant Number mean: 0.0023844 max: 0.561072
Interface Courant Number mean: 0.00029009 max: 0.476634
deltaT = 1.06387e-06
Time = 0.000131221s

[adaptive_stop] t=0.000130157 normU=0.0543 maxDeltaAlpha=0.0902
MULES: Solving for alpha.water
MULES: Solving for alpha.water
Phase-1 volume fraction = 0.499991  Min(alpha.water) = -7.68265e-10  Max(alpha.water) = 1
MULES: Solving for alpha.water
MULES: Solving for alpha.water
Phase-1 volume fraction = 0.499991  Min(alpha.water) = -7.02652e-10  Max(alpha.water) = 1
GAMG:  Solving for p_rgh, Initial residual = 0.0121025, Final residual = 6.69785e-05, No Iterations 2
time step continuity errors : sum local = 3.01719e-07, global = 1.11942e-10
[adaptive_stop] t=0.000130157 normU=0.0543 maxDeltaAlpha=0.0902
GAMGPCG:  Solving for p_rgh, Initial residual = 0.004421, Final residual = 3.4448e-10, No Iterations 5
time step continuity errors : sum local = 1.54034e-12, global = -5.76064e-16, cumulative = -1.8413e-13
ExecutionTime = 650.443 s  ClockTime = 655 s

Courant Number mean: 0.00243198 max: 0.54096
Interface Courant Number mean: 0.000302852 max: 0.460716
deltaT = 1.15458e-06
Time = 0.000132375s

MULES: Solving for alpha.water
MULES: Solving for alpha.water
Phase-1 volume fraction = 0.499991  Min(alpha.water) = -2.45697e-10  Max(alpha.water) = 1
MULES: Solving for alpha.water
MULES: Solving for alpha.water
Phase-1 volume fraction = 0.499991  Min(alpha.water) = -2.251e-10  Max(alpha.water) = 1
GAMG:  Solving for p_rgh, Initial residual = 0.0127514, Final residual = 6.42289e-05, No Iterations 2
time step continuity errors : sum local = 3.1361e-07, global = 1.98401e-10
[adaptive_stop] t=0.000130157 normU=0.0543 maxDeltaAlpha=0.0902
GAMGPCG:  Solving for p_rgh, Initial residual = 0.00462686, Final residual = 3.92135e-10, No Iterations 5
time step continuity errors : sum local = 1.89843e-12, global = -2.08719e-16, cumulative = -1.84338e-13
ExecutionTime = 696.401 s  ClockTime = 701 s

Courant Number mean: 0.00256729 max: 0.562121
Interface Courant Number mean: 0.000327551 max: 0.433512
deltaT = 1.33165e-06
Time = 0.000133707s

[adaptive_stop] t=0.000130157 normU=0.0543 maxDeltaAlpha=0.0902
MULES: Solving for alpha.water
MULES: Solving for alpha.water
Phase-1 volume fraction = 0.499991  Min(alpha.water) = -3.00805e-11  Max(alpha.water) = 1
MULES: Solving for alpha.water
MULES: Solving for alpha.water
Phase-1 volume fraction = 0.499991  Min(alpha.water) = -2.84123e-11  Max(alpha.water) = 1
GAMG:  Solving for p_rgh, Initial residual = 0.0140744, Final residual = 7.31633e-05, No Iterations 2
time step continuity errors : sum local = 4.29547e-07, global = 1.4161e-10
GAMGPCG:  Solving for p_rgh, Initial residual = 0.00510717, Final residual = 3.6245e-10, No Iterations 5
time step continuity errors : sum local = 2.10737e-12, global = -1.24977e-15, cumulative = -1.85588e-13
ExecutionTime = 735.346 s  ClockTime = 740 s

Courant Number mean: 0.00287925 max: 0.625258
Interface Courant Number mean: 0.000376242 max: 0.474924
deltaT = 1.40196e-06
Time = 0.000135109s

[adaptive_stop] t=0.000130157 normU=0.0543 maxDeltaAlpha=0.0902
MULES: Solving for alpha.water
MULES: Solving for alpha.water
Phase-1 volume fraction = 0.499991  Min(alpha.water) = -2.68245e-11  Max(alpha.water) = 1
MULES: Solving for alpha.water
MULES: Solving for alpha.water
Phase-1 volume fraction = 0.499991  Min(alpha.water) = -2.5325e-11  Max(alpha.water) = 1
GAMG:  Solving for p_rgh, Initial residual = 0.0144578, Final residual = 7.22291e-05, No Iterations 2
time step continuity errors : sum local = 4.21203e-07, global = 1.5663e-10
[adaptive_stop] t=0.000130157 normU=0.0543 maxDeltaAlpha=0.0902
GAMGPCG:  Solving for p_rgh, Initial residual = 0.00516566, Final residual = 4.90185e-10, No Iterations 5
time step continuity errors : sum local = 2.8365e-12, global = -4.75747e-16, cumulative = -1.86064e-13
ExecutionTime = 776.996 s  ClockTime = 782 s

Courant Number mean: 0.00295408 max: 0.661698
Interface Courant Number mean: 0.000393913 max: 0.497032
deltaT = 1.41033e-06
Time = 0.000136519s

MULES: Solving for alpha.water
MULES: Solving for alpha.water
Phase-1 volume fraction = 0.499991  Min(alpha.water) = -2.39374e-11  Max(alpha.water) = 1
MULES: Solving for alpha.water
MULES: Solving for alpha.water
Phase-1 volume fraction = 0.499991  Min(alpha.water) = -2.26248e-11  Max(alpha.water) = 1
[adaptive_stop] t=0.000130157 normU=0.0543 maxDeltaAlpha=0.0902
GAMG:  Solving for p_rgh, Initial residual = 0.0149712, Final residual = 7.96656e-05, No Iterations 2
time step continuity errors : sum local = 4.30031e-07, global = 9.41374e-11
GAMGPCG:  Solving for p_rgh, Initial residual = 0.0053194, Final residual = 4.8952e-10, No Iterations 5
time step continuity errors : sum local = 2.62754e-12, global = 8.65681e-16, cumulative = -1.85198e-13
ExecutionTime = 814.565 s  ClockTime = 820 s

Courant Number mean: 0.00290519 max: 0.665005
Interface Courant Number mean: 0.000394224 max: 0.493651
deltaT = 1.42846e-06
Time = 0.000137948s

[adaptive_stop] t=0.000136519 normU=0.044 maxDeltaAlpha=0.054
MULES: Solving for alpha.water
MULES: Solving for alpha.water
Phase-1 volume fraction = 0.499991  Min(alpha.water) = -2.13823e-11  Max(alpha.water) = 1
MULES: Solving for alpha.water
MULES: Solving for alpha.water
Phase-1 volume fraction = 0.499991  Min(alpha.water) = -2.02064e-11  Max(alpha.water) = 1
GAMG:  Solving for p_rgh, Initial residual = 0.0156139, Final residual = 7.95208e-05, No Iterations 2
time step continuity errors : sum local = 4.04188e-07, global = 1.51822e-10
GAMGPCG:  Solving for p_rgh, Initial residual = 0.00550876, Final residual = 5.49903e-10, No Iterations 5
time step continuity errors : sum local = 2.77793e-12, global = -2.61541e-16, cumulative = -1.8546e-13
[adaptive_stop] t=0.000136519 normU=0.044 maxDeltaAlpha=0.054
ExecutionTime = 855.786 s  ClockTime = 861 s

Courant Number mean: 0.00288399 max: 0.668966
Interface Courant Number mean: 0.000397526 max: 0.49536
deltaT = 1.44184e-06
Time = 0.00013939s

MULES: Solving for alpha.water
MULES: Solving for alpha.water
Phase-1 volume fraction = 0.499991  Min(alpha.water) = -1.90474e-11  Max(alpha.water) = 1
MULES: Solving for alpha.water
MULES: Solving for alpha.water
Phase-1 volume fraction = 0.499991  Min(alpha.water) = -1.79529e-11  Max(alpha.water) = 1
GAMG:  Solving for p_rgh, Initial residual = 0.0166169, Final residual = 9.51831e-05, No Iterations 2
time step continuity errors : sum local = 4.49041e-07, global = -7.49874e-12
[adaptive_stop] t=0.000136519 normU=0.044 maxDeltaAlpha=0.054
GAMGPCG:  Solving for p_rgh, Initial residual = 0.00577784, Final residual = 3.74625e-10, No Iterations 5
time step continuity errors : sum local = 1.75745e-12, global = 5.60483e-16, cumulative = -1.84899e-13
ExecutionTime = 893.003 s  ClockTime = 899 s

Courant Number mean: 0.00285904 max: 0.668428
Interface Courant Number mean: 0.000398658 max: 0.497564
deltaT = 1.4489e-06
Time = 0.000140838s

MULES: Solving for alpha.water
MULES: Solving for alpha.water
Phase-1 volume fraction = 0.499991  Min(alpha.water) = -2.72096e-08  Max(alpha.water) = 1
MULES: Solving for alpha.water
MULES: Solving for alpha.water
Phase-1 volume fraction = 0.499991  Min(alpha.water) = -2.53755e-08  Max(alpha.water) = 1
GAMG:  Solving for p_rgh, Initial residual = 0.0173023, Final residual = 9.32608e-05, No Iterations 2
[adaptive_stop] t=0.000136519 normU=0.044 maxDeltaAlpha=0.054
time step continuity errors : sum local = 4.0488e-07, global = -1.89582e-11
GAMGPCG:  Solving for p_rgh, Initial residual = 0.00604305, Final residual = 5.43344e-10, No Iterations 5
time step continuity errors : sum local = 2.34586e-12, global = 2.70363e-16, cumulative = -1.84629e-13
ExecutionTime = 933.106 s  ClockTime = 939 s

Courant Number mean: 0.00282709 max: 0.685137
Interface Courant Number mean: 0.000396657 max: 0.498242
deltaT = 1.45401e-06
Time = 0.000142292s

[adaptive_stop] t=0.000136519 normU=0.044 maxDeltaAlpha=0.054
MULES: Solving for alpha.water
MULES: Solving for alpha.water
Phase-1 volume fraction = 0.499991  Min(alpha.water) = -2.38e-08  Max(alpha.water) = 1
MULES: Solving for alpha.water
MULES: Solving for alpha.water
Phase-1 volume fraction = 0.499991  Min(alpha.water) = -2.23221e-08  Max(alpha.water) = 1
GAMG:  Solving for p_rgh, Initial residual = 0.0182763, Final residual = 0.000114222, No Iterations 2
time step continuity errors : sum local = 4.53234e-07, global = 2.94568e-11
GAMGPCG:  Solving for p_rgh, Initial residual = 0.00632878, Final residual = 4.07754e-10, No Iterations 5
time step continuity errors : sum local = 1.60838e-12, global = -7.37328e-16, cumulative = -1.85366e-13
ExecutionTime = 972.346 s  ClockTime = 978 s

Courant Number mean: 0.00279775 max: 0.696017
Interface Courant Number mean: 0.000394627 max: 0.498835
deltaT = 1.4574e-06
Time = 0.00014375s

[adaptive_stop] t=0.000136519 normU=0.044 maxDeltaAlpha=0.054
MULES: Solving for alpha.water
MULES: Solving for alpha.water
Phase-1 volume fraction = 0.499991  Min(alpha.water) = -2.1036e-08  Max(alpha.water) = 1
MULES: Solving for alpha.water
MULES: Solving for alpha.water
Phase-1 volume fraction = 0.499991  Min(alpha.water) = -1.98238e-08  Max(alpha.water) = 1
GAMG:  Solving for p_rgh, Initial residual = 0.0194771, Final residual = 0.000114706, No Iterations 2
time step continuity errors : sum local = 4.14933e-07, global = -8.55522e-11
[adaptive_stop] t=0.000136519 normU=0.044 maxDeltaAlpha=0.054
GAMGPCG:  Solving for p_rgh, Initial residual = 0.00658042, Final residual = 7.60934e-10, No Iterations 5
time step continuity errors : sum local = 2.73567e-12, global = 6.87325e-16, cumulative = -1.84679e-13
ExecutionTime = 1010.85 s  ClockTime = 1017 s

Courant Number mean: 0.00277039 max: 0.683016
Interface Courant Number mean: 0.000392387 max: 0.502664
deltaT = 1.44967e-06
Time = 0.000145199s

MULES: Solving for alpha.water
MULES: Solving for alpha.water
Phase-1 volume fraction = 0.499991  Min(alpha.water) = -1.8635e-08  Max(alpha.water) = 1
MULES: Solving for alpha.water
MULES: Solving for alpha.water
Phase-1 volume fraction = 0.499991  Min(alpha.water) = -1.75175e-08  Max(alpha.water) = 1
GAMG:  Solving for p_rgh, Initial residual = 0.0205964, Final residual = 0.000126017, No Iterations 2
time step continuity errors : sum local = 4.09428e-07, global = 1.41628e-10
[adaptive_stop] t=0.00014375 normU=0.0384 maxDeltaAlpha=0.0579
GAMGPCG:  Solving for p_rgh, Initial residual = 0.00693533, Final residual = 4.73963e-10, No Iterations 5
time step continuity errors : sum local = 1.52922e-12, global = 6.694e-16, cumulative = -1.84009e-13
ExecutionTime = 1052.58 s  ClockTime = 1059 s

Courant Number mean: 0.00272686 max: 0.652998
Interface Courant Number mean: 0.000387402 max: 0.521588
deltaT = 1.38966e-06
Time = 0.000146589s

MULES: Solving for alpha.water
MULES: Solving for alpha.water
Phase-1 volume fraction = 0.499991  Min(alpha.water) = -1.6389e-08  Max(alpha.water) = 1
[adaptive_stop] t=0.00014375 normU=0.0384 maxDeltaAlpha=0.0579
MULES: Solving for alpha.water
MULES: Solving for alpha.water
Phase-1 volume fraction = 0.499991  Min(alpha.water) = -1.53331e-08  Max(alpha.water) = 1
GAMG:  Solving for p_rgh, Initial residual = 0.0211043, Final residual = 0.000128469, No Iterations 2
time step continuity errors : sum local = 3.4934e-07, global = -1.57523e-11
GAMGPCG:  Solving for p_rgh, Initial residual = 0.00707118, Final residual = 6.39374e-10, No Iterations 5
time step continuity errors : sum local = 1.7326e-12, global = 1.09315e-15, cumulative = -1.82916e-13
ExecutionTime = 1089.85 s  ClockTime = 1097 s

Courant Number mean: 0.00259006 max: 0.594333
Interface Courant Number mean: 0.000369705 max: 0.518046
deltaT = 1.34125e-06
Time = 0.00014793s

[adaptive_stop] t=0.00014375 normU=0.0384 maxDeltaAlpha=0.0579
MULES: Solving for alpha.water
MULES: Solving for alpha.water
Phase-1 volume fraction = 0.499991  Min(alpha.water) = -1.43008e-08  Max(alpha.water) = 1
MULES: Solving for alpha.water
MULES: Solving for alpha.water
Phase-1 volume fraction = 0.499991  Min(alpha.water) = -1.33379e-08  Max(alpha.water) = 1
GAMG:  Solving for p_rgh, Initial residual = 0.021024, Final residual = 0.000129149, No Iterations 2
time step continuity errors : sum local = 3.0518e-07, global = 2.99481e-11
[adaptive_stop] t=0.00014375 normU=0.0384 maxDeltaAlpha=0.0579
GAMGPCG:  Solving for p_rgh, Initial residual = 0.00702633, Final residual = 5.20645e-10, No Iterations 5
time step continuity errors : sum local = 1.22444e-12, global = 9.92907e-16, cumulative = -1.81923e-13
ExecutionTime = 1131.3 s  ClockTime = 1138 s

Courant Number mean: 0.00248019 max: 0.561498
Interface Courant Number mean: 0.000354102 max: 0.512522
deltaT = 1.30848e-06
Time = 0.000149239s

MULES: Solving for alpha.water
MULES: Solving for alpha.water
Phase-1 volume fraction = 0.499991  Min(alpha.water) = -1.24077e-08  Max(alpha.water) = 1
MULES: Solving for alpha.water
MULES: Solving for alpha.water
Phase-1 volume fraction = 0.499991  Min(alpha.water) = -1.15422e-08  Max(alpha.water) = 1
GAMG:  Solving for p_rgh, Initial residual = 0.0216276, Final residual = 0.000132624, No Iterations 2
time step continuity errors : sum local = 2.75867e-07, global = 3.96618e-11
[adaptive_stop] t=0.00014375 normU=0.0384 maxDeltaAlpha=0.0579
GAMGPCG:  Solving for p_rgh, Initial residual = 0.0071787, Final residual = 5.29562e-10, No Iterations 5
time step continuity errors : sum local = 1.09651e-12, global = 5.33756e-16, cumulative = -1.8139e-13
ExecutionTime = 1168.1 s  ClockTime = 1176 s

Courant Number mean: 0.00240354 max: 0.560029
Interface Courant Number mean: 0.000342685 max: 0.506492
deltaT = 1.2917e-06
Time = 0.000150531s

MULES: Solving for alpha.water
MULES: Solving for alpha.water
Phase-1 volume fraction = 0.499991  Min(alpha.water) = -1.07175e-08  Max(alpha.water) = 1
MULES: Solving for alpha.water
MULES: Solving for alpha.water
Phase-1 volume fraction = 0.499991  Min(alpha.water) = -9.95163e-09  Max(alpha.water) = 1
[adaptive_stop] t=0.00014375 normU=0.0384 maxDeltaAlpha=0.0579
GAMG:  Solving for p_rgh, Initial residual = 0.0230523, Final residual = 0.000149058, No Iterations 2
time step continuity errors : sum local = 2.77057e-07, global = 5.83347e-11
GAMGPCG:  Solving for p_rgh, Initial residual = 0.0075781, Final residual = 6.65299e-10, No Iterations 5
time step continuity errors : sum local = 1.22944e-12, global = 1.19989e-15, cumulative = -1.8019e-13
ExecutionTime = 1208.98 s  ClockTime = 1217 s

Courant Number mean: 0.00235897 max: 0.554413
Interface Courant Number mean: 0.000335503 max: 0.502071
deltaT = 1.28637e-06
Time = 0.000151817s

[adaptive_stop] t=0.000150531 normU=0.0352 maxDeltaAlpha=0.0514
MULES: Solving for alpha.water
MULES: Solving for alpha.water
Phase-1 volume fraction = 0.499991  Min(alpha.water) = -9.22325e-09  Max(alpha.water) = 1
MULES: Solving for alpha.water
MULES: Solving for alpha.water
Phase-1 volume fraction = 0.499991  Min(alpha.water) = -8.54807e-09  Max(alpha.water) = 1
GAMG:  Solving for p_rgh, Initial residual = 0.0243852, Final residual = 0.00015252, No Iterations 2
time step continuity errors : sum local = 2.55485e-07, global = 4.76395e-11
[adaptive_stop] t=0.000150531 normU=0.0352 maxDeltaAlpha=0.0514
GAMGPCG:  Solving for p_rgh, Initial residual = 0.00798558, Final residual = 1.09286e-09, No Iterations 5
time step continuity errors : sum local = 1.81812e-12, global = 1.35596e-15, cumulative = -1.78834e-13
ExecutionTime = 1248.26 s  ClockTime = 1256 s

Courant Number mean: 0.00233765 max: 0.542622
Interface Courant Number mean: 0.000331957 max: 0.510801
deltaT = 1.25916e-06
Time = 0.000153076s

MULES: Solving for alpha.water
MULES: Solving for alpha.water
Phase-1 volume fraction = 0.499991  Min(alpha.water) = -7.9198e-09  Max(alpha.water) = 1
MULES: Solving for alpha.water
MULES: Solving for alpha.water
Phase-1 volume fraction = 0.499991  Min(alpha.water) = -7.33758e-09  Max(alpha.water) = 1
GAMG:  Solving for p_rgh, Initial residual = 0.0257655, Final residual = 0.000158385, No Iterations 2
time step continuity errors : sum local = 2.29939e-07, global = 7.68357e-13
[adaptive_stop] t=0.000150531 normU=0.0352 maxDeltaAlpha=0.0514
GAMGPCG:  Solving for p_rgh, Initial residual = 0.00825153, Final residual = 8.32327e-10, No Iterations 5
time step continuity errors : sum local = 1.20401e-12, global = 3.54996e-16, cumulative = -1.78479e-13
ExecutionTime = 1288.42 s  ClockTime = 1297 s

Courant Number mean: 0.00227894 max: 0.546954
Interface Courant Number mean: 0.000323987 max: 0.510106
deltaT = 1.23421e-06
Time = 0.00015431s

MULES: Solving for alpha.water
MULES: Solving for alpha.water
Phase-1 volume fraction = 0.499991  Min(alpha.water) = -6.79771e-09  Max(alpha.water) = 1
MULES: Solving for alpha.water
MULES: Solving for alpha.water
Phase-1 volume fraction = 0.499991  Min(alpha.water) = -6.29736e-09  Max(alpha.water) = 1
[adaptive_stop] t=0.000150531 normU=0.0352 maxDeltaAlpha=0.0514
GAMG:  Solving for p_rgh, Initial residual = 0.0268332, Final residual = 0.000165804, No Iterations 2
time step continuity errors : sum local = 2.14749e-07, global = 3.43599e-11
GAMGPCG:  Solving for p_rgh, Initial residual = 0.0086257, Final residual = 7.05288e-10, No Iterations 5
time step continuity errors : sum local = 9.09452e-13, global = 1.45987e-16, cumulative = -1.78333e-13
ExecutionTime = 1328.67 s  ClockTime = 1337 s

Courant Number mean: 0.00222616 max: 0.549106
Interface Courant Number mean: 0.000316349 max: 0.509569
deltaT = 1.21103e-06
Time = 0.000155521s

[adaptive_stop] t=0.000150531 normU=0.0352 maxDeltaAlpha=0.0514
MULES: Solving for alpha.water
MULES: Solving for alpha.water
Phase-1 volume fraction = 0.499991  Min(alpha.water) = -5.83392e-09  Max(alpha.water) = 1
MULES: Solving for alpha.water
MULES: Solving for alpha.water
Phase-1 volume fraction = 0.499991  Min(alpha.water) = -5.40439e-09  Max(alpha.water) = 1
GAMG:  Solving for p_rgh, Initial residual = 0.0284647, Final residual = 0.000168366, No Iterations 2
time step continuity errors : sum local = 1.94411e-07, global = 6.93456e-12
[adaptive_stop] t=0.000150531 normU=0.0352 maxDeltaAlpha=0.0514
GAMGPCG:  Solving for p_rgh, Initial residual = 0.00905658, Final residual = 9.13948e-10, No Iterations 5
time step continuity errors : sum local = 1.05044e-12, global = 3.94648e-17, cumulative = -1.78293e-13
ExecutionTime = 1368.46 s  ClockTime = 1377 s

Courant Number mean: 0.00217795 max: 0.549918
Interface Courant Number mean: 0.000310053 max: 0.509499
deltaT = 1.18845e-06
Time = 0.00015671s

MULES: Solving for alpha.water
MULES: Solving for alpha.water
Phase-1 volume fraction = 0.499991  Min(alpha.water) = -5.00662e-09  Max(alpha.water) = 1
MULES: Solving for alpha.water
MULES: Solving for alpha.water
Phase-1 volume fraction = 0.499991  Min(alpha.water) = -4.63787e-09  Max(alpha.water) = 1
GAMG:  Solving for p_rgh, Initial residual = 0.0267045, Final residual = 0.000156631, No Iterations 2
time step continuity errors : sum local = 1.81981e-07, global = -1.87087e-11
[adaptive_stop] t=0.000150531 normU=0.0352 maxDeltaAlpha=0.0514
GAMGPCG:  Solving for p_rgh, Initial residual = 0.00839758, Final residual = 8.34625e-10, No Iterations 5
time step continuity errors : sum local = 9.75308e-13, global = -4.37577e-16, cumulative = -1.78731e-13
ExecutionTime = 1410.89 s  ClockTime = 1420 s

Courant Number mean: 0.00213182 max: 0.549513
Interface Courant Number mean: 0.000303631 max: 0.511123
deltaT = 1.16259e-06
Time = 0.000157872s

MULES: Solving for alpha.water
MULES: Solving for alpha.water
Phase-1 volume fraction = 0.499991  Min(alpha.water) = -4.29824e-09  Max(alpha.water) = 1
MULES: Solving for alpha.water
[adaptive_stop] t=0.00015671 normU=0.0328 maxDeltaAlpha=0.0487
MULES: Solving for alpha.water
Phase-1 volume fraction = 0.499991  Min(alpha.water) = -3.98316e-09  Max(alpha.water) = 1
GAMG:  Solving for p_rgh, Initial residual = 0.0241824, Final residual = 0.000145967, No Iterations 2
time step continuity errors : sum local = 1.7095e-07, global = -4.37515e-13
GAMGPCG:  Solving for p_rgh, Initial residual = 0.00763951, Final residual = 9.76372e-10, No Iterations 5
time step continuity errors : sum local = 1.14734e-12, global = -1.79653e-15, cumulative = -1.80527e-13
ExecutionTime = 1450.5 s  ClockTime = 1460 s

Courant Number mean: 0.00208071 max: 0.513383
Interface Courant Number mean: 0.000296945 max: 0.508332
deltaT = 1.14353e-06
Time = 0.000159016s

[adaptive_stop] t=0.00015671 normU=0.0328 maxDeltaAlpha=0.0487
MULES: Solving for alpha.water
MULES: Solving for alpha.water
Phase-1 volume fraction = 0.499991  Min(alpha.water) = -3.73526e-09  Max(alpha.water) = 1
MULES: Solving for alpha.water
MULES: Solving for alpha.water
Phase-1 volume fraction = 0.499991  Min(alpha.water) = -3.68196e-09  Max(alpha.water) = 1
GAMG:  Solving for p_rgh, Initial residual = 0.022627, Final residual = 0.000142131, No Iterations 2
time step continuity errors : sum local = 1.67133e-07, global = -1.58155e-11
[adaptive_stop] t=0.00015671 normU=0.0328 maxDeltaAlpha=0.0487
GAMGPCG:  Solving for p_rgh, Initial residual = 0.00719855, Final residual = 7.74592e-10, No Iterations 5
time step continuity errors : sum local = 9.13858e-13, global = -4.39355e-16, cumulative = -1.80967e-13
ExecutionTime = 1492.41 s  ClockTime = 1502 s

Courant Number mean: 0.00204228 max: 0.50638
Interface Courant Number mean: 0.000290803 max: 0.50638
deltaT = 1.12912e-06
Time = 0.000160145s

MULES: Solving for alpha.water
MULES: Solving for alpha.water
Phase-1 volume fraction = 0.499991  Min(alpha.water) = -3.6207e-09  Max(alpha.water) = 1
MULES: Solving for alpha.water
MULES: Solving for alpha.water
Phase-1 volume fraction = 0.499991  Min(alpha.water) = -3.54828e-09  Max(alpha.water) = 1
GAMG:  Solving for p_rgh, Initial residual = 0.0217297, Final residual = 0.000135457, No Iterations 2
time step continuity errors : sum local = 1.59856e-07, global = 7.07623e-11
[adaptive_stop] t=0.00015671 normU=0.0328 maxDeltaAlpha=0.0487
GAMGPCG:  Solving for p_rgh, Initial residual = 0.0069312, Final residual = 9.29537e-10, No Iterations 5
time step continuity errors : sum local = 1.09861e-12, global = -1.51795e-15, cumulative = -1.82485e-13
ExecutionTime = 1529.74 s  ClockTime = 1540 s

Courant Number mean: 0.00201273 max: 0.506642
Interface Courant Number mean: 0.000286672 max: 0.506642
deltaT = 1.11431e-06
Time = 0.000161259s

MULES: Solving for alpha.water
MULES: Solving for alpha.water
Phase-1 volume fraction = 0.499991  Min(alpha.water) = -3.47013e-09  Max(alpha.water) = 1
MULES: Solving for alpha.water
MULES: Solving for alpha.water
[adaptive_stop] t=0.00015671 normU=0.0328 maxDeltaAlpha=0.0487
Phase-1 volume fraction = 0.499991  Min(alpha.water) = -3.38399e-09  Max(alpha.water) = 1
GAMG:  Solving for p_rgh, Initial residual = 0.0207373, Final residual = 0.000122151, No Iterations 2
time step continuity errors : sum local = 1.44242e-07, global = 1.2666e-11
GAMGPCG:  Solving for p_rgh, Initial residual = 0.00661507, Final residual = 8.10275e-10, No Iterations 5
time step continuity errors : sum local = 9.57634e-13, global = -3.32425e-15, cumulative = -1.85809e-13
ExecutionTime = 1570.27 s  ClockTime = 1580 s

Courant Number mean: 0.00198323 max: 0.507537
Interface Courant Number mean: 0.000282024 max: 0.507537
deltaT = 1.09776e-06
Time = 0.000162357s

[adaptive_stop] t=0.00015671 normU=0.0328 maxDeltaAlpha=0.0487
MULES: Solving for alpha.water
MULES: Solving for alpha.water
Phase-1 volume fraction = 0.499991  Min(alpha.water) = -3.29448e-09  Max(alpha.water) = 1
MULES: Solving for alpha.water
MULES: Solving for alpha.water
Phase-1 volume fraction = 0.499991  Min(alpha.water) = -3.19968e-09  Max(alpha.water) = 1
GAMG:  Solving for p_rgh, Initial residual = 0.0202614, Final residual = 0.000122957, No Iterations 2
time step continuity errors : sum local = 1.43821e-07, global = 2.77776e-11
[adaptive_stop] t=0.00015671 normU=0.0328 maxDeltaAlpha=0.0487
GAMGPCG:  Solving for p_rgh, Initial residual = 0.00631862, Final residual = 1.00558e-09, No Iterations 5
time step continuity errors : sum local = 1.1774e-12, global = 3.3733e-16, cumulative = -1.85472e-13
ExecutionTime = 1608.96 s  ClockTime = 1619 s

Courant Number mean: 0.0019518 max: 0.508496
Interface Courant Number mean: 0.000277452 max: 0.508496
deltaT = 1.07942e-06
Time = 0.000163437s

MULES: Solving for alpha.water
MULES: Solving for alpha.water
Phase-1 volume fraction = 0.499991  Min(alpha.water) = -3.10331e-09  Max(alpha.water) = 1
MULES: Solving for alpha.water
MULES: Solving for alpha.water
Phase-1 volume fraction = 0.499991  Min(alpha.water) = -3.00386e-09  Max(alpha.water) = 1
GAMG:  Solving for p_rgh, Initial residual = 0.0193324, Final residual = 0.000111881, No Iterations 2
time step continuity errors : sum local = 1.28504e-07, global = 5.6653e-12
[adaptive_stop] t=0.000162357 normU=0.0309 maxDeltaAlpha=0.0441
GAMGPCG:  Solving for p_rgh, Initial residual = 0.00604, Final residual = 6.4941e-10, No Iterations 5
time step continuity errors : sum local = 7.46199e-13, global = -2.16325e-16, cumulative = -1.85688e-13
ExecutionTime = 1651.16 s  ClockTime = 1662 s

Courant Number mean: 0.00191767 max: 0.509402
Interface Courant Number mean: 0.000272207 max: 0.509402
deltaT = 1.05949e-06
Time = 0.000164496s

MULES: Solving for alpha.water
MULES: Solving for alpha.water
[adaptive_stop] t=0.000162357 normU=0.0309 maxDeltaAlpha=0.0441
Phase-1 volume fraction = 0.499991  Min(alpha.water) = -2.90453e-09  Max(alpha.water) = 1
MULES: Solving for alpha.water
MULES: Solving for alpha.water
Phase-1 volume fraction = 0.499991  Min(alpha.water) = -2.80376e-09  Max(alpha.water) = 1
GAMG:  Solving for p_rgh, Initial residual = 0.0189596, Final residual = 0.000119942, No Iterations 2
time step continuity errors : sum local = 1.34217e-07, global = 6.46339e-11
GAMGPCG:  Solving for p_rgh, Initial residual = 0.00600635, Final residual = 1.30122e-09, No Iterations 5
time step continuity errors : sum local = 1.45625e-12, global = 6.04862e-16, cumulative = -1.85083e-13
ExecutionTime = 1694.1 s  ClockTime = 1705 s

Courant Number mean: 0.00188076 max: 0.510562
Interface Courant Number mean: 0.000266798 max: 0.510562
deltaT = 1.03757e-06
Time = 0.000165534s

[adaptive_stop] t=0.000162357 normU=0.0309 maxDeltaAlpha=0.0441
MULES: Solving for alpha.water
MULES: Solving for alpha.water
Phase-1 volume fraction = 0.499991  Min(alpha.water) = -2.57713e-09  Max(alpha.water) = 1
MULES: Solving for alpha.water
MULES: Solving for alpha.water
Phase-1 volume fraction = 0.499991  Min(alpha.water) = -2.37095e-09  Max(alpha.water) = 1
GAMG:  Solving for p_rgh, Initial residual = 0.0184913, Final residual = 0.000119749, No Iterations 2
time step continuity errors : sum local = 1.29683e-07, global = 4.622e-11
[adaptive_stop] t=0.000162357 normU=0.0309 maxDeltaAlpha=0.0441
GAMGPCG:  Solving for p_rgh, Initial residual = 0.00587989, Final residual = 6.8809e-10, No Iterations 5
time step continuity errors : sum local = 7.4478e-13, global = -4.39407e-17, cumulative = -1.85127e-13
ExecutionTime = 1734.4 s  ClockTime = 1746 s

Courant Number mean: 0.00184028 max: 0.511446
Interface Courant Number mean: 0.000260517 max: 0.511446
deltaT = 1.01435e-06
Time = 0.000166548s

MULES: Solving for alpha.water
MULES: Solving for alpha.water
Phase-1 volume fraction = 0.499991  Min(alpha.water) = -2.25104e-09  Max(alpha.water) = 1
MULES: Solving for alpha.water
MULES: Solving for alpha.water
Phase-1 volume fraction = 0.499991  Min(alpha.water) = -2.24042e-09  Max(alpha.water) = 1
[adaptive_stop] t=0.000162357 normU=0.0309 maxDeltaAlpha=0.0441
GAMG:  Solving for p_rgh, Initial residual = 0.0175001, Final residual = 0.000109635, No Iterations 2
time step continuity errors : sum local = 1.13879e-07, global = 2.99284e-11
GAMGPCG:  Solving for p_rgh, Initial residual = 0.00560251, Final residual = 1.42577e-09, No Iterations 5
time step continuity errors : sum local = 1.48016e-12, global = 2.41701e-16, cumulative = -1.84885e-13
ExecutionTime = 1775.15 s  ClockTime = 1787 s

Courant Number mean: 0.00179785 max: 0.512067
Interface Courant Number mean: 0.000253933 max: 0.512067
deltaT = 9.9044e-07
Time = 0.000167538s

[adaptive_stop] t=0.000162357 normU=0.0309 maxDeltaAlpha=0.0441
MULES: Solving for alpha.water
MULES: Solving for alpha.water
Phase-1 volume fraction = 0.499991  Min(alpha.water) = -2.22494e-09  Max(alpha.water) = 1
MULES: Solving for alpha.water
MULES: Solving for alpha.water
Phase-1 volume fraction = 0.499991  Min(alpha.water) = -2.20465e-09  Max(alpha.water) = 1
GAMG:  Solving for p_rgh, Initial residual = 0.0171887, Final residual = 0.000105575, No Iterations 2
time step continuity errors : sum local = 1.04777e-07, global = 3.05093e-11
GAMGPCG:  Solving for p_rgh, Initial residual = 0.00534272, Final residual = 5.86971e-10, No Iterations 5
time step continuity errors : sum local = 5.81688e-13, global = 7.68013e-17, cumulative = -1.84808e-13
ExecutionTime = 1815.26 s  ClockTime = 1827 s

Courant Number mean: 0.00175465 max: 0.512371
Interface Courant Number mean: 0.000246999 max: 0.512371
deltaT = 9.66526e-07
Time = 0.000168505s

[adaptive_stop] t=0.000167538 normU=0.0291 maxDeltaAlpha=0.0356
MULES: Solving for alpha.water
MULES: Solving for alpha.water
Phase-1 volume fraction = 0.499991  Min(alpha.water) = -2.1815e-09  Max(alpha.water) = 1
MULES: Solving for alpha.water
MULES: Solving for alpha.water
Phase-1 volume fraction = 0.499991  Min(alpha.water) = -2.15494e-09  Max(alpha.water) = 1
GAMG:  Solving for p_rgh, Initial residual = 0.0168467, Final residual = 0.000106657, No Iterations 2
time step continuity errors : sum local = 1.00364e-07, global = 1.93577e-11
[adaptive_stop] t=0.000167538 normU=0.0291 maxDeltaAlpha=0.0356
GAMGPCG:  Solving for p_rgh, Initial residual = 0.0052972, Final residual = 1.2675e-09, No Iterations 5
time step continuity errors : sum local = 1.19204e-12, global = 1.80148e-15, cumulative = -1.83007e-13
ExecutionTime = 1857.12 s  ClockTime = 1869 s

Courant Number mean: 0.00171178 max: 0.512422
Interface Courant Number mean: 0.000240537 max: 0.306916
deltaT = 1.15983e-06
Time = 0.000169665s

MULES: Solving for alpha.water
MULES: Solving for alpha.water
Phase-1 volume fraction = 0.499991  Min(alpha.water) = -2.11959e-09  Max(alpha.water) = 1
MULES: Solving for alpha.water
MULES: Solving for alpha.water
Phase-1 volume fraction = 0.499991  Min(alpha.water) = -2.08089e-09  Max(alpha.water) = 1
[adaptive_stop] t=0.000167538 normU=0.0291 maxDeltaAlpha=0.0356
GAMG:  Solving for p_rgh, Initial residual = 0.0220084, Final residual = 0.000112273, No Iterations 2
time step continuity errors : sum local = 1.45737e-07, global = 9.83956e-11
GAMGPCG:  Solving for p_rgh, Initial residual = 0.00663114, Final residual = 5.79846e-10, No Iterations 5
time step continuity errors : sum local = 7.58251e-13, global = 8.49576e-17, cumulative = -1.82922e-13
ExecutionTime = 1895.2 s  ClockTime = 1908 s

Courant Number mean: 0.00205517 max: 0.63402
Interface Courant Number mean: 0.000289494 max: 0.366917
deltaT = 1.39179e-06
Time = 0.000171057s

[adaptive_stop] t=0.000167538 normU=0.0291 maxDeltaAlpha=0.0356
MULES: Solving for alpha.water
MULES: Solving for alpha.water
Phase-1 volume fraction = 0.499991  Min(alpha.water) = -2.03175e-09  Max(alpha.water) = 1
MULES: Solving for alpha.water
MULES: Solving for alpha.water
Phase-1 volume fraction = 0.499991  Min(alpha.water) = -1.9797e-09  Max(alpha.water) = 1
GAMG:  Solving for p_rgh, Initial residual = 0.0220592, Final residual = 0.00013041, No Iterations 2
time step continuity errors : sum local = 2.56478e-07, global = 1.07324e-10
GAMGPCG:  Solving for p_rgh, Initial residual = 0.00669331, Final residual = 1.04027e-09, No Iterations 5
time step continuity errors : sum local = 2.04875e-12, global = 2.95678e-16, cumulative = -1.82626e-13
ExecutionTime = 1937.04 s  ClockTime = 1950 s

Courant Number mean: 0.00246832 max: 0.85179
Interface Courant Number mean: 0.000347222 max: 0.439678
deltaT = 1.58273e-06
Time = 0.000172639s

[adaptive_stop] t=0.000167538 normU=0.0291 maxDeltaAlpha=0.0356
MULES: Solving for alpha.water
MULES: Solving for alpha.water
Phase-1 volume fraction = 0.499991  Min(alpha.water) = -1.91967e-09  Max(alpha.water) = 1
MULES: Solving for alpha.water
MULES: Solving for alpha.water
Phase-1 volume fraction = 0.499991  Min(alpha.water) = -1.85777e-09  Max(alpha.water) = 1
GAMG:  Solving for p_rgh, Initial residual = 0.0227145, Final residual = 0.000133326, No Iterations 2
time step continuity errors : sum local = 3.36787e-07, global = 1.20743e-10
[adaptive_stop] t=0.000167538 normU=0.0291 maxDeltaAlpha=0.0356
GAMGPCG:  Solving for p_rgh, Initial residual = 0.00715411, Final residual = 9.41181e-10, No Iterations 5
time step continuity errors : sum local = 2.37075e-12, global = -2.22388e-16, cumulative = -1.82849e-13
ExecutionTime = 1974.63 s  ClockTime = 1988 s

Courant Number mean: 0.00280927 max: 1.00669
Interface Courant Number mean: 0.00039435 max: 0.501166
deltaT = 1.57221e-06
Time = 0.000174211s

MULES: Solving for alpha.water
MULES: Solving for alpha.water
Phase-1 volume fraction = 0.499991  Min(alpha.water) = -1.79821e-09  Max(alpha.water) = 1
MULES: Solving for alpha.water
MULES: Solving for alpha.water
Phase-1 volume fraction = 0.499991  Min(alpha.water) = -1.73826e-09  Max(alpha.water) = 1
[adaptive_stop] t=0.000167538 normU=0.0291 maxDeltaAlpha=0.0356
GAMG:  Solving for p_rgh, Initial residual = 0.0235513, Final residual = 0.000134038, No Iterations 2
time step continuity errors : sum local = 3.26277e-07, global = 1.08852e-10
GAMGPCG:  Solving for p_rgh, Initial residual = 0.00755694, Final residual = 1.08444e-09, No Iterations 5
time step continuity errors : sum local = 2.6236e-12, global = 3.08108e-16, cumulative = -1.82541e-13
ExecutionTime = 2016.31 s  ClockTime = 2030 s

Courant Number mean: 0.00279212 max: 0.976514
Interface Courant Number mean: 0.000392263 max: 0.498773
deltaT = 1.57607e-06
Time = 0.000175788s

[adaptive_stop] t=0.000174211 normU=0.0267 maxDeltaAlpha=0.0368
MULES: Solving for alpha.water
MULES: Solving for alpha.water
Phase-1 volume fraction = 0.499991  Min(alpha.water) = -1.68055e-09  Max(alpha.water) = 1
MULES: Solving for alpha.water
MULES: Solving for alpha.water
Phase-1 volume fraction = 0.499991  Min(alpha.water) = -1.62301e-09  Max(alpha.water) = 1
GAMG:  Solving for p_rgh, Initial residual = 0.025124, Final residual = 0.000144238, No Iterations 2
time step continuity errors : sum local = 3.26126e-07, global = 1.02169e-10
GAMGPCG:  Solving for p_rgh, Initial residual = 0.00783109, Final residual = 8.4844e-10, No Iterations 5
time step continuity errors : sum local = 1.90989e-12, global = -3.41394e-16, cumulative = -1.82882e-13
ExecutionTime = 2054.62 s  ClockTime = 2068 s

Courant Number mean: 0.00279988 max: 0.938276
Interface Courant Number mean: 0.00039382 max: 0.499934
deltaT = 1.57627e-06
Time = 0.000177364s

[adaptive_stop] t=0.000174211 normU=0.0267 maxDeltaAlpha=0.0368
MULES: Solving for alpha.water
MULES: Solving for alpha.water
Phase-1 volume fraction = 0.499991  Min(alpha.water) = -5.79053e-09  Max(alpha.water) = 1
MULES: Solving for alpha.water
MULES: Solving for alpha.water
Phase-1 volume fraction = 0.499991  Min(alpha.water) = -5.62845e-09  Max(alpha.water) = 1
GAMG:  Solving for p_rgh, Initial residual = 0.0262806, Final residual = 0.000151737, No Iterations 2
time step continuity errors : sum local = 3.2679e-07, global = 7.47118e-11
[adaptive_stop] t=0.000174211 normU=0.0267 maxDeltaAlpha=0.0368
GAMGPCG:  Solving for p_rgh, Initial residual = 0.00819823, Final residual = 1.08416e-09, No Iterations 5
time step continuity errors : sum local = 2.32704e-12, global = 6.50457e-15, cumulative = -1.76377e-13
ExecutionTime = 2096.02 s  ClockTime = 2110 s

Courant Number mean: 0.00280122 max: 0.895877
Interface Courant Number mean: 0.000393981 max: 0.528087
deltaT = 1.49243e-06
Time = 0.000178856s

MULES: Solving for alpha.water
MULES: Solving for alpha.water
Phase-1 volume fraction = 0.499991  Min(alpha.water) = -5.48814e-09  Max(alpha.water) = 1
MULES: Solving for alpha.water
MULES: Solving for alpha.water
Phase-1 volume fraction = 0.499991  Min(alpha.water) = -5.35133e-09  Max(alpha.water) = 1
[adaptive_stop] t=0.000174211 normU=0.0267 maxDeltaAlpha=0.0368
GAMG:  Solving for p_rgh, Initial residual = 0.0262295, Final residual = 0.000151906, No Iterations 2
time step continuity errors : sum local = 2.84617e-07, global = 1.4747e-11
GAMGPCG:  Solving for p_rgh, Initial residual = 0.0081388, Final residual = 5.65774e-10, No Iterations 5
time step continuity errors : sum local = 1.05407e-12, global = -1.51722e-16, cumulative = -1.76529e-13
ExecutionTime = 2135.04 s  ClockTime = 2149 s

Courant Number mean: 0.00265279 max: 0.811789
Interface Courant Number mean: 0.000373191 max: 0.526436
deltaT = 1.41748e-06
Time = 0.000180274s

[adaptive_stop] t=0.000174211 normU=0.0267 maxDeltaAlpha=0.0368
MULES: Solving for alpha.water
MULES: Solving for alpha.water
Phase-1 volume fraction = 0.499991  Min(alpha.water) = -5.2227e-09  Max(alpha.water) = 1
MULES: Solving for alpha.water
MULES: Solving for alpha.water
Phase-1 volume fraction = 0.499991  Min(alpha.water) = -5.09715e-09  Max(alpha.water) = 1
GAMG:  Solving for p_rgh, Initial residual = 0.02699, Final residual = 0.000156059, No Iterations 2
time step continuity errors : sum local = 2.50196e-07, global = 3.67413e-11
GAMGPCG:  Solving for p_rgh, Initial residual = 0.00831723, Final residual = 1.05399e-09, No Iterations 5
time step continuity errors : sum local = 1.6822e-12, global = 1.68291e-15, cumulative = -1.74846e-13
ExecutionTime = 2175.87 s  ClockTime = 2190 s

Courant Number mean: 0.00251911 max: 0.738999
Interface Courant Number mean: 0.000354281 max: 0.52045
deltaT = 1.36178e-06
Time = 0.000181635s

[adaptive_stop] t=0.000174211 normU=0.0267 maxDeltaAlpha=0.0368
MULES: Solving for alpha.water
MULES: Solving for alpha.water
Phase-1 volume fraction = 0.499991  Min(alpha.water) = -4.97566e-09  Max(alpha.water) = 1
MULES: Solving for alpha.water
MULES: Solving for alpha.water
Phase-1 volume fraction = 0.499991  Min(alpha.water) = -4.85706e-09  Max(alpha.water) = 1
GAMG:  Solving for p_rgh, Initial residual = 0.0265922, Final residual = 0.000169959, No Iterations 2
time step continuity errors : sum local = 2.41875e-07, global = 9.01143e-11
[adaptive_stop] t=0.000174211 normU=0.0267 maxDeltaAlpha=0.0368
GAMGPCG:  Solving for p_rgh, Initial residual = 0.00819321, Final residual = 1.2283e-09, No Iterations 5
time step continuity errors : sum local = 1.74378e-12, global = -2.66666e-15, cumulative = -1.77513e-13
ExecutionTime = 2216.47 s  ClockTime = 2231 s

Courant Number mean: 0.00241932 max: 0.704824
Interface Courant Number mean: 0.000339532 max: 0.516132
deltaT = 1.31921e-06
Time = 0.000182955s

MULES: Solving for alpha.water
MULES: Solving for alpha.water
Phase-1 volume fraction = 0.499991  Min(alpha.water) = -4.74113e-09  Max(alpha.water) = 1
MULES: Solving for alpha.water
MULES: Solving for alpha.water
Phase-1 volume fraction = 0.499991  Min(alpha.water) = -2.87186e-08  Max(alpha.water) = 1
[adaptive_stop] t=0.000181635 normU=0.0236 maxDeltaAlpha=0.0288
GAMG:  Solving for p_rgh, Initial residual = 0.0266494, Final residual = 0.000181093, No Iterations 2
time step continuity errors : sum local = 2.34858e-07, global = 4.99133e-11
GAMGPCG:  Solving for p_rgh, Initial residual = 0.00837003, Final residual = 8.15881e-10, No Iterations 5
time step continuity errors : sum local = 1.0552e-12, global = -2.06876e-15, cumulative = -1.79582e-13
ExecutionTime = 2255.77 s  ClockTime = 2271 s

Courant Number mean: 0.00234253 max: 0.647256
Interface Courant Number mean: 0.000328288 max: 0.402197
deltaT = 1.58305e-06
Time = 0.000184538s

[adaptive_stop] t=0.000181635 normU=0.0236 maxDeltaAlpha=0.0288
MULES: Solving for alpha.water
MULES: Solving for alpha.water
Phase-1 volume fraction = 0.499991  Min(alpha.water) = -2.36894e-08  Max(alpha.water) = 1
MULES: Solving for alpha.water
MULES: Solving for alpha.water
Phase-1 volume fraction = 0.499991  Min(alpha.water) = -1.9541e-08  Max(alpha.water) = 1
GAMG:  Solving for p_rgh, Initial residual = 0.0335367, Final residual = 0.000188315, No Iterations 2
time step continuity errors : sum local = 3.27911e-07, global = 1.56289e-10
GAMGPCG:  Solving for p_rgh, Initial residual = 0.00995976, Final residual = 1.18039e-09, No Iterations 5
time step continuity errors : sum local = 2.06613e-12, global = 2.64893e-16, cumulative = -1.79317e-13
ExecutionTime = 2297.51 s  ClockTime = 2313 s

Courant Number mean: 0.00281066 max: 0.737964
Interface Courant Number mean: 0.000393661 max: 0.559096
deltaT = 1.41572e-06
Time = 0.000185953s

[adaptive_stop] t=0.000181635 normU=0.0236 maxDeltaAlpha=0.0288
MULES: Solving for alpha.water
MULES: Solving for alpha.water
Phase-1 volume fraction = 0.499991  Min(alpha.water) = -1.61959e-08  Max(alpha.water) = 1
MULES: Solving for alpha.water
MULES: Solving for alpha.water
Phase-1 volume fraction = 0.499991  Min(alpha.water) = -1.34234e-08  Max(alpha.water) = 1
GAMG:  Solving for p_rgh, Initial residual = 0.0286689, Final residual = 0.000156956, No Iterations 2
time step continuity errors : sum local = 2.38839e-07, global = 6.1394e-12
[adaptive_stop] t=0.000181635 normU=0.0236 maxDeltaAlpha=0.0288
GAMGPCG:  Solving for p_rgh, Initial residual = 0.00887768, Final residual = 8.22905e-10, No Iterations 5
time step continuity errors : sum local = 1.2385e-12, global = 3.09545e-16, cumulative = -1.79007e-13
ExecutionTime = 2336.12 s  ClockTime = 2352 s

Courant Number mean: 0.00251235 max: 0.632784
Interface Courant Number mean: 0.000350483 max: 0.448095
deltaT = 1.57971e-06
Time = 0.000187533s

MULES: Solving for alpha.water
MULES: Solving for alpha.water
Phase-1 volume fraction = 0.499991  Min(alpha.water) = -1.08536e-08  Max(alpha.water) = 1
MULES: Solving for alpha.water
MULES: Solving for alpha.water
Phase-1 volume fraction = 0.499991  Min(alpha.water) = -8.77571e-09  Max(alpha.water) = 1
[adaptive_stop] t=0.000181635 normU=0.0236 maxDeltaAlpha=0.0288
GAMG:  Solving for p_rgh, Initial residual = 0.0336076, Final residual = 0.000196496, No Iterations 2
time step continuity errors : sum local = 3.21093e-07, global = 1.01821e-10
GAMGPCG:  Solving for p_rgh, Initial residual = 0.0101441, Final residual = 1.03726e-09, No Iterations 5
time step continuity errors : sum local = 1.69952e-12, global = 3.02656e-15, cumulative = -1.75981e-13
ExecutionTime = 2377.69 s  ClockTime = 2394 s

Courant Number mean: 0.00280268 max: 0.671845
Interface Courant Number mean: 0.000388903 max: 0.500363
deltaT = 1.57856e-06
Time = 0.000189112s

[adaptive_stop] t=0.000181635 normU=0.0236 maxDeltaAlpha=0.0288
MULES: Solving for alpha.water
MULES: Solving for alpha.water
Phase-1 volume fraction = 0.499991  Min(alpha.water) = -7.0515e-09  Max(alpha.water) = 1
MULES: Solving for alpha.water
MULES: Solving for alpha.water
Phase-1 volume fraction = 0.499991  Min(alpha.water) = -5.66605e-09  Max(alpha.water) = 1
GAMG:  Solving for p_rgh, Initial residual = 0.0322635, Final residual = 0.000206778, No Iterations 2
time step continuity errors : sum local = 3.49649e-07, global = 1.16846e-10
GAMGPCG:  Solving for p_rgh, Initial residual = 0.0100112, Final residual = 1.16307e-09, No Iterations 5
time step continuity errors : sum local = 1.95787e-12, global = 4.93916e-15, cumulative = -1.71042e-13
ExecutionTime = 2415.3 s  ClockTime = 2432 s

Courant Number mean: 0.00279784 max: 0.637616
Interface Courant Number mean: 0.00038861 max: 0.49248
deltaT = 1.60267e-06
Time = 0.000190714s

[adaptive_stop] t=0.000189112 normU=0.0207 maxDeltaAlpha=0.0323
MULES: Solving for alpha.water
MULES: Solving for alpha.water
Phase-1 volume fraction = 0.499991  Min(alpha.water) = -4.51638e-09  Max(alpha.water) = 1
MULES: Solving for alpha.water
MULES: Solving for alpha.water
Phase-1 volume fraction = 0.499991  Min(alpha.water) = -3.59999e-09  Max(alpha.water) = 1
GAMG:  Solving for p_rgh, Initial residual = 0.0337534, Final residual = 0.000203598, No Iterations 2
time step continuity errors : sum local = 3.32292e-07, global = 1.50618e-10
[adaptive_stop] t=0.000189112 normU=0.0207 maxDeltaAlpha=0.0323
GAMGPCG:  Solving for p_rgh, Initial residual = 0.0104232, Final residual = 1.15801e-09, No Iterations 5
time step continuity errors : sum local = 1.88575e-12, global = 2.68576e-15, cumulative = -1.68356e-13
ExecutionTime = 2456.8 s  ClockTime = 2473 s

Courant Number mean: 0.00283749 max: 0.62032
Interface Courant Number mean: 0.000394263 max: 0.523957
deltaT = 1.52938e-06
Time = 0.000192244s

MULES: Solving for alpha.water
MULES: Solving for alpha.water
Phase-1 volume fraction = 0.499991  Min(alpha.water) = -2.87134e-09  Max(alpha.water) = 1
MULES: Solving for alpha.water
MULES: Solving for alpha.water
Phase-1 volume fraction = 0.499991  Min(alpha.water) = -2.2992e-09  Max(alpha.water) = 1
[adaptive_stop] t=0.000189112 normU=0.0207 maxDeltaAlpha=0.0323
GAMG:  Solving for p_rgh, Initial residual = 0.0338536, Final residual = 0.000202262, No Iterations 2
time step continuity errors : sum local = 2.92175e-07, global = 8.26015e-11
GAMGPCG:  Solving for p_rgh, Initial residual = 0.0103958, Final residual = 1.08907e-09, No Iterations 5
time step continuity errors : sum local = 1.56835e-12, global = 1.0231e-15, cumulative = -1.67333e-13
ExecutionTime = 2494.26 s  ClockTime = 2511 s

Courant Number mean: 0.00270413 max: 0.594572
Interface Courant Number mean: 0.00037467 max: 0.52886
deltaT = 1.44592e-06
Time = 0.00019369s

MULES: Solving for alpha.water
[adaptive_stop] t=0.000189112 normU=0.0207 maxDeltaAlpha=0.0323
MULES: Solving for alpha.water
Phase-1 volume fraction = 0.499991  Min(alpha.water) = -2.11558e-09  Max(alpha.water) = 1
MULES: Solving for alpha.water
MULES: Solving for alpha.water
Phase-1 volume fraction = 0.499991  Min(alpha.water) = -1.94662e-09  Max(alpha.water) = 1
GAMG:  Solving for p_rgh, Initial residual = 0.0340065, Final residual = 0.000201218, No Iterations 2
time step continuity errors : sum local = 2.46013e-07, global = 5.86879e-11
GAMGPCG:  Solving for p_rgh, Initial residual = 0.0104739, Final residual = 1.56652e-09, No Iterations 5
time step continuity errors : sum local = 1.91189e-12, global = 1.43493e-15, cumulative = -1.65898e-13
ExecutionTime = 2535.37 s  ClockTime = 2552 s

Courant Number mean: 0.00255295 max: 0.597488
Interface Courant Number mean: 0.000353311 max: 0.532368
deltaT = 1.358e-06
Time = 0.000195048s

[adaptive_stop] t=0.000189112 normU=0.0207 maxDeltaAlpha=0.0323
MULES: Solving for alpha.water
MULES: Solving for alpha.water
Phase-1 volume fraction = 0.499991  Min(alpha.water) = -1.78819e-09  Max(alpha.water) = 1
MULES: Solving for alpha.water
MULES: Solving for alpha.water
Phase-1 volume fraction = 0.499991  Min(alpha.water) = -1.64265e-09  Max(alpha.water) = 1
GAMG:  Solving for p_rgh, Initial residual = 0.0340056, Final residual = 0.000198979, No Iterations 2
time step continuity errors : sum local = 2.07812e-07, global = 1.15151e-10
[adaptive_stop] t=0.000189112 normU=0.0207 maxDeltaAlpha=0.0323
GAMGPCG:  Solving for p_rgh, Initial residual = 0.0103687, Final residual = 1.1058e-09, No Iterations 5
time step continuity errors : sum local = 1.15233e-12, global = 4.12638e-15, cumulative = -1.61771e-13
ExecutionTime = 2574.7 s  ClockTime = 2592 s

Courant Number mean: 0.00239425 max: 0.601967
Interface Courant Number mean: 0.000330783 max: 0.536051
deltaT = 1.26667e-06
Time = 0.000196314s

MULES: Solving for alpha.water
MULES: Solving for alpha.water
Phase-1 volume fraction = 0.499991  Min(alpha.water) = -1.50938e-09  Max(alpha.water) = 1
MULES: Solving for alpha.water
MULES: Solving for alpha.water
Phase-1 volume fraction = 0.499991  Min(alpha.water) = -1.38692e-09  Max(alpha.water) = 1
GAMG:  Solving for p_rgh, Initial residual = 0.0305496, Final residual = 0.000184121, No Iterations 2
[adaptive_stop] t=0.000189112 normU=0.0207 maxDeltaAlpha=0.0323
time step continuity errors : sum local = 1.75629e-07, global = 4.95911e-11
GAMGPCG:  Solving for p_rgh, Initial residual = 0.00942093, Final residual = 1.09949e-09, No Iterations 5
time step continuity errors : sum local = 1.04713e-12, global = 2.69263e-16, cumulative = -1.61502e-13
ExecutionTime = 2615.37 s  ClockTime = 2633 s

Courant Number mean: 0.00222966 max: 0.626336
Interface Courant Number mean: 0.000307038 max: 0.419659
deltaT = 1.50916e-06
Time = 0.000197824s

[adaptive_stop] t=0.000196314 normU=0.0181 maxDeltaAlpha=0.0435
MULES: Solving for alpha.water
MULES: Solving for alpha.water
Phase-1 volume fraction = 0.499991  Min(alpha.water) = -1.24933e-09  Max(alpha.water) = 1
MULES: Solving for alpha.water
MULES: Solving for alpha.water
Phase-1 volume fraction = 0.499991  Min(alpha.water) = -1.1254e-09  Max(alpha.water) = 1
GAMG:  Solving for p_rgh, Initial residual = 0.0364906, Final residual = 0.000210035, No Iterations 2
time step continuity errors : sum local = 2.7915e-07, global = 1.73501e-10
GAMGPCG:  Solving for p_rgh, Initial residual = 0.0110755, Final residual = 7.32388e-10, No Iterations 5
time step continuity errors : sum local = 9.55215e-13, global = -2.76535e-16, cumulative = -1.61779e-13
ExecutionTime = 2655.5 s  ClockTime = 2674 s

Courant Number mean: 0.00265282 max: 0.732524
Interface Courant Number mean: 0.000365201 max: 0.504595
deltaT = 1.49541e-06
Time = 0.000199319s

[adaptive_stop] t=0.000196314 normU=0.0181 maxDeltaAlpha=0.0435
MULES: Solving for alpha.water
MULES: Solving for alpha.water
Phase-1 volume fraction = 0.499991  Min(alpha.water) = -1.01005e-09  Max(alpha.water) = 1
MULES: Solving for alpha.water
MULES: Solving for alpha.water
Phase-1 volume fraction = 0.499991  Min(alpha.water) = -9.06528e-10  Max(alpha.water) = 1
GAMG:  Solving for p_rgh, Initial residual = 0.036066, Final residual = 0.000225614, No Iterations 2
time step continuity errors : sum local = 2.73026e-07, global = 3.05236e-11
[adaptive_stop] t=0.000196314 normU=0.0181 maxDeltaAlpha=0.0435
GAMGPCG:  Solving for p_rgh, Initial residual = 0.011386, Final residual = 1.35657e-09, No Iterations 5
time step continuity errors : sum local = 1.63405e-12, global = -5.50132e-16, cumulative = -1.62329e-13
ExecutionTime = 2695.04 s  ClockTime = 2713 s

Courant Number mean: 0.00262448 max: 0.692971
Interface Courant Number mean: 0.00036059 max: 0.431493
deltaT = 1.73283e-06
Time = 0.000201052s

MULES: Solving for alpha.water
MULES: Solving for alpha.water
Phase-1 volume fraction = 0.499991  Min(alpha.water) = -1.48042e-08  Max(alpha.water) = 1
MULES: Solving for alpha.water
MULES: Solving for alpha.water
Phase-1 volume fraction = 0.499991  Min(alpha.water) = -7.82407e-10  Max(alpha.water) = 1
GAMG:  Solving for p_rgh, Initial residual = 0.0405879, Final residual = 0.000226595, No Iterations 2
[adaptive_stop] t=0.000196314 normU=0.0181 maxDeltaAlpha=0.0435
time step continuity errors : sum local = 3.61217e-07, global = 1.81323e-10
GAMGPCG:  Solving for p_rgh, Initial residual = 0.012449, Final residual = 1.11258e-09, No Iterations 5
time step continuity errors : sum local = 1.75132e-12, global = 3.80679e-15, cumulative = -1.58522e-13
ExecutionTime = 2735.73 s  ClockTime = 2754 s

Courant Number mean: 0.00303801 max: 0.7562
Interface Courant Number mean: 0.000418542 max: 0.503497
deltaT = 1.72078e-06
Time = 0.000202773s

[adaptive_stop] t=0.000196314 normU=0.0181 maxDeltaAlpha=0.0435
MULES: Solving for alpha.water
MULES: Solving for alpha.water
Phase-1 volume fraction = 0.499991  Min(alpha.water) = -1.84812e-09  Max(alpha.water) = 1
MULES: Solving for alpha.water
MULES: Solving for alpha.water
Phase-1 volume fraction = 0.499991  Min(alpha.water) = -1.64595e-09  Max(alpha.water) = 1
GAMG:  Solving for p_rgh, Initial residual = 0.0415049, Final residual = 0.00026945, No Iterations 2
time step continuity errors : sum local = 4.06552e-07, global = 1.00375e-10
GAMGPCG:  Solving for p_rgh, Initial residual = 0.0130158, Final residual = 1.41672e-09, No Iterations 5
time step continuity errors : sum local = 2.13644e-12, global = 1.14882e-15, cumulative = -1.57373e-13
ExecutionTime = 2775.41 s  ClockTime = 2794 s

Courant Number mean: 0.00301344 max: 0.715547
Interface Courant Number mean: 0.000414496 max: 0.502131
deltaT = 1.71347e-06
Time = 0.000204486s

[adaptive_stop] t=0.000196314 normU=0.0181 maxDeltaAlpha=0.0435
MULES: Solving for alpha.water
MULES: Solving for alpha.water
Phase-1 volume fraction = 0.499991  Min(alpha.water) = -1.46359e-09  Max(alpha.water) = 1
MULES: Solving for alpha.water
MULES: Solving for alpha.water
Phase-1 volume fraction = 0.499991  Min(alpha.water) = -1.30143e-09  Max(alpha.water) = 1
GAMG:  Solving for p_rgh, Initial residual = 0.0391191, Final residual = 0.000243145, No Iterations 2
time step continuity errors : sum local = 3.83304e-07, global = 1.3094e-10
[adaptive_stop] t=0.000196314 normU=0.0181 maxDeltaAlpha=0.0435
GAMGPCG:  Solving for p_rgh, Initial residual = 0.0121233, Final residual = 1.27166e-09, No Iterations 5
time step continuity errors : sum local = 1.99875e-12, global = 2.9982e-15, cumulative = -1.54375e-13
ExecutionTime = 2820.39 s  ClockTime = 2840 s

Courant Number mean: 0.0029958 max: 0.709032
Interface Courant Number mean: 0.000412811 max: 0.500132
deltaT = 1.71302e-06
Time = 0.000206199s

MULES: Solving for alpha.water
MULES: Solving for alpha.water
Phase-1 volume fraction = 0.499991  Min(alpha.water) = -1.15559e-09  Max(alpha.water) = 1
MULES: Solving for alpha.water
MULES: Solving for alpha.water
Phase-1 volume fraction = 0.499991  Min(alpha.water) = -1.02609e-09  Max(alpha.water) = 1
[adaptive_stop] t=0.000204486 normU=0.0165 maxDeltaAlpha=0.0648
GAMG:  Solving for p_rgh, Initial residual = 0.037481, Final residual = 0.000233813, No Iterations 2
time step continuity errors : sum local = 3.76855e-07, global = 1.38366e-10
GAMGPCG:  Solving for p_rgh, Initial residual = 0.0117382, Final residual = 1.27191e-09, No Iterations 5
time step continuity errors : sum local = 2.04205e-12, global = 9.57663e-16, cumulative = -1.53417e-13
ExecutionTime = 2859.14 s  ClockTime = 2879 s

Courant Number mean: 0.00299011 max: 0.702442
Interface Courant Number mean: 0.000410233 max: 0.498042
deltaT = 1.71975e-06
Time = 0.000207919s

[adaptive_stop] t=0.000204486 normU=0.0165 maxDeltaAlpha=0.0648
MULES: Solving for alpha.water
MULES: Solving for alpha.water
Phase-1 volume fraction = 0.499991  Min(alpha.water) = -9.09891e-10  Max(alpha.water) = 1
MULES: Solving for alpha.water
MULES: Solving for alpha.water
Phase-1 volume fraction = 0.499991  Min(alpha.water) = -8.0685e-10  Max(alpha.water) = 1
GAMG:  Solving for p_rgh, Initial residual = 0.0358005, Final residual = 0.000207549, No Iterations 2
time step continuity errors : sum local = 3.41037e-07, global = 1.347e-10
[adaptive_stop] t=0.000204486 normU=0.0165 maxDeltaAlpha=0.0648
GAMGPCG:  Solving for p_rgh, Initial residual = 0.0112936, Final residual = 1.29818e-09, No Iterations 5
time step continuity errors : sum local = 2.12239e-12, global = 6.06052e-15, cumulative = -1.47357e-13
ExecutionTime = 2900.65 s  ClockTime = 2921 s

Courant Number mean: 0.0029963 max: 0.696261
Interface Courant Number mean: 0.00041015 max: 0.495934
deltaT = 1.73385e-06
Time = 0.000209653s

MULES: Solving for alpha.water
MULES: Solving for alpha.water
Phase-1 volume fraction = 0.499991  Min(alpha.water) = -7.14888e-10  Max(alpha.water) = 1
MULES: Solving for alpha.water
MULES: Solving for alpha.water
Phase-1 volume fraction = 0.499991  Min(alpha.water) = -6.33409e-10  Max(alpha.water) = 1
GAMG:  Solving for p_rgh, Initial residual = 0.0351847, Final residual = 0.000213767, No Iterations 2
time step continuity errors : sum local = 3.6121e-07, global = 1.25252e-10
[adaptive_stop] t=0.000204486 normU=0.0165 maxDeltaAlpha=0.0648
GAMGPCG:  Solving for p_rgh, Initial residual = 0.0111834, Final residual = 1.41146e-09, No Iterations 5
time step continuity errors : sum local = 2.37476e-12, global = 1.5429e-15, cumulative = -1.45814e-13
ExecutionTime = 2938.39 s  ClockTime = 2959 s

Courant Number mean: 0.00301492 max: 0.690892
Interface Courant Number mean: 0.00041171 max: 0.49253
deltaT = 1.76014e-06
Time = 0.000211413s

MULES: Solving for alpha.water
MULES: Solving for alpha.water
Phase-1 volume fraction = 0.499991  Min(alpha.water) = -5.60645e-10  Max(alpha.water) = 1
MULES: Solving for alpha.water
MULES: Solving for alpha.water
Phase-1 volume fraction = 0.499991  Min(alpha.water) = -4.96239e-10  Max(alpha.water) = 1
[adaptive_stop] t=0.000204486 normU=0.0165 maxDeltaAlpha=0.0648
GAMG:  Solving for p_rgh, Initial residual = 0.0354548, Final residual = 0.000196018, No Iterations 2
time step continuity errors : sum local = 3.44034e-07, global = 2.06373e-10
GAMGPCG:  Solving for p_rgh, Initial residual = 0.0109931, Final residual = 1.16342e-09, No Iterations 5
time step continuity errors : sum local = 2.03174e-12, global = 1.50185e-15, cumulative = -1.44312e-13
ExecutionTime = 2979.78 s  ClockTime = 3000 s

Courant Number mean: 0.00305403 max: 0.688691
Interface Courant Number mean: 0.000417381 max: 0.489902
deltaT = 1.79642e-06
Time = 0.000213209s

[adaptive_stop] t=0.000204486 normU=0.0165 maxDeltaAlpha=0.0648
MULES: Solving for alpha.water
MULES: Solving for alpha.water
Phase-1 volume fraction = 0.499991  Min(alpha.water) = -4.42141e-10  Max(alpha.water) = 1
MULES: Solving for alpha.water
MULES: Solving for alpha.water
Phase-1 volume fraction = 0.499991  Min(alpha.water) = -6.73161e-09  Max(alpha.water) = 1
GAMG:  Solving for p_rgh, Initial residual = 0.0346888, Final residual = 0.000205225, No Iterations 2
time step continuity errors : sum local = 3.76725e-07, global = -1.15899e-11
GAMGPCG:  Solving for p_rgh, Initial residual = 0.0109927, Final residual = 1.3636e-09, No Iterations 5
time step continuity errors : sum local = 2.49444e-12, global = 3.58059e-15, cumulative = -1.40731e-13
[adaptive_stop] t=0.000204486 normU=0.0165 maxDeltaAlpha=0.0648
ExecutionTime = 3018.63 s  ClockTime = 3039 s

Courant Number mean: 0.00310953 max: 0.688178
Interface Courant Number mean: 0.000425218 max: 0.494084
deltaT = 1.81793e-06
Time = 0.000215027s

MULES: Solving for alpha.water
MULES: Solving for alpha.water
Phase-1 volume fraction = 0.499991  Min(alpha.water) = -6.17023e-09  Max(alpha.water) = 1
MULES: Solving for alpha.water
MULES: Solving for alpha.water
Phase-1 volume fraction = 0.499991  Min(alpha.water) = -5.65567e-09  Max(alpha.water) = 1
GAMG:  Solving for p_rgh, Initial residual = 0.0345889, Final residual = 0.000204459, No Iterations 2
time step continuity errors : sum local = 3.85019e-07, global = 1.70505e-10
[adaptive_stop] t=0.000213209 normU=0.0157 maxDeltaAlpha=0.0867
GAMGPCG:  Solving for p_rgh, Initial residual = 0.0108622, Final residual = 1.01293e-09, No Iterations 5
time step continuity errors : sum local = 1.89995e-12, global = -7.52621e-16, cumulative = -1.41484e-13
ExecutionTime = 3060.07 s  ClockTime = 3081 s

Courant Number mean: 0.00313722 max: 0.707708
Interface Courant Number mean: 0.000428763 max: 0.503045
deltaT = 1.80692e-06
Time = 0.000216834s

MULES: Solving for alpha.water
MULES: Solving for alpha.water
Phase-1 volume fraction = 0.499991  Min(alpha.water) = -4.23149e-10  Max(alpha.water) = 1
MULES: Solving for alpha.water
MULES: Solving for alpha.water
Phase-1 volume fraction = 0.499991  Min(alpha.water) = -4.18852e-10  Max(alpha.water) = 1
[adaptive_stop] t=0.000213209 normU=0.0157 maxDeltaAlpha=0.0867
GAMG:  Solving for p_rgh, Initial residual = 0.0339418, Final residual = 0.000204328, No Iterations 2
time step continuity errors : sum local = 3.83882e-07, global = 1.00177e-10
[...]
[adaptive_stop] t=0.000438264 normU=0.0163 maxDeltaAlpha=0.0123
GAMGPCG:  Solving for p_rgh, Initial residual = 0.00685196, Final residual = 1.88576e-09, No Iterations 5
time step continuity errors : sum local = 4.67898e-12, global = 6.78271e-16, cumulative = -6.24095e-14
ExecutionTime = 7324.31 s  ClockTime = 7385 s

Courant Number mean: 0.00401152 max: 0.896803
Interface Courant Number mean: 0.0004162 max: 0.496565
deltaT = 2.2603e-06
Time = 0.000442769s

MULES: Solving for alpha.water
MULES: Solving for alpha.water
Phase-1 volume fraction = 0.499991  Min(alpha.water) = -6.4468e-09  Max(alpha.water) = 1
MULES: Solving for alpha.water
MULES: Solving for alpha.water
Phase-1 volume fraction = 0.499991  Min(alpha.water) = -1.69023e-08  Max(alpha.water) = 1
GAMG:  Solving for p_rgh, Initial residual = 0.0219106, Final residual = 0.000134355, No Iterations 2
[adaptive_stop] t=0.000438264 normU=0.0163 maxDeltaAlpha=0.0123
time step continuity errors : sum local = 3.36857e-07, global = 3.08607e-11
GAMGPCG:  Solving for p_rgh, Initial residual = 0.00674302, Final residual = 5.74219e-10, No Iterations 5
time step continuity errors : sum local = 1.43612e-12, global = -2.39199e-16, cumulative = -6.26487e-14
ExecutionTime = 7360.54 s  ClockTime = 7422 s

Courant Number mean: 0.00404426 max: 0.87717
Interface Courant Number mean: 0.000418956 max: 0.513465
deltaT = 2.20101e-06
Time = 0.00044497s

MULES: Solving for alpha.water
MULES: Solving for alpha.water
Phase-1 volume fraction = 0.499991  Min(alpha.water) = -5.63584e-09  Max(alpha.water) = 1
MULES: Solving for alpha.water
[adaptive_stop] t=0.000438264 normU=0.0163 maxDeltaAlpha=0.0123
MULES: Solving for alpha.water
Phase-1 volume fraction = 0.499991  Min(alpha.water) = -2.63696e-08  Max(alpha.water) = 1
GAMG:  Solving for p_rgh, Initial residual = 0.0219944, Final residual = 0.000143004, No Iterations 2
time step continuity errors : sum local = 3.40956e-07, global = 1.29059e-10
GAMGPCG:  Solving for p_rgh, Initial residual = 0.00679017, Final residual = 1.53127e-09, No Iterations 5
time step continuity errors : sum local = 3.6478e-12, global = -4.49386e-16, cumulative = -6.30981e-14
ExecutionTime = 7396.84 s  ClockTime = 7458 s

Courant Number mean: 0.00394244 max: 0.840722
Interface Courant Number mean: 0.000407752 max: 0.527456
deltaT = 2.08642e-06
Time = 0.000447056s

[adaptive_stop] t=0.000438264 normU=0.0163 maxDeltaAlpha=0.0123
MULES: Solving for alpha.water
MULES: Solving for alpha.water
Phase-1 volume fraction = 0.499991  Min(alpha.water) = -3.29191e-08  Max(alpha.water) = 1
MULES: Solving for alpha.water
MULES: Solving for alpha.water
Phase-1 volume fraction = 0.499991  Min(alpha.water) = -3.32624e-08  Max(alpha.water) = 1
GAMG:  Solving for p_rgh, Initial residual = 0.0209404, Final residual = 0.00015025, No Iterations 2
time step continuity errors : sum local = 3.26381e-07, global = 9.58141e-12
GAMGPCG:  Solving for p_rgh, Initial residual = 0.00647789, Final residual = 5.83794e-10, No Iterations 5
time step continuity errors : sum local = 1.26611e-12, global = 5.13751e-16, cumulative = -6.25844e-14
ExecutionTime = 7433.05 s  ClockTime = 7495 s

Courant Number mean: 0.00374038 max: 0.799049
Interface Courant Number mean: 0.000386268 max: 0.434946
deltaT = 2.39846e-06
Time = 0.000449455s

[adaptive_stop] t=0.000438264 normU=0.0163 maxDeltaAlpha=0.0123
MULES: Solving for alpha.water
MULES: Solving for alpha.water
Phase-1 volume fraction = 0.499991  Min(alpha.water) = -2.8781e-08  Max(alpha.water) = 1
MULES: Solving for alpha.water
MULES: Solving for alpha.water
Phase-1 volume fraction = 0.499991  Min(alpha.water) = -2.44583e-08  Max(alpha.water) = 1
GAMG:  Solving for p_rgh, Initial residual = 0.023719, Final residual = 0.00014518, No Iterations 2
time step continuity errors : sum local = 4.05478e-07, global = 9.24009e-11
[adaptive_stop] t=0.000438264 normU=0.0163 maxDeltaAlpha=0.0123
GAMGPCG:  Solving for p_rgh, Initial residual = 0.00703702, Final residual = 7.21137e-10, No Iterations 5
time step continuity errors : sum local = 2.00615e-12, global = 1.64775e-15, cumulative = -6.09366e-14
ExecutionTime = 7468.56 s  ClockTime = 7531 s

Courant Number mean: 0.00430539 max: 0.900602
Interface Courant Number mean: 0.000443336 max: 0.472893
deltaT = 2.53593e-06
Time = 0.000451991s

MULES: Solving for alpha.water
MULES: Solving for alpha.water
Phase-1 volume fraction = 0.499991  Min(alpha.water) = -2.04495e-08  Max(alpha.water) = 1
MULES: Solving for alpha.water
MULES: Solving for alpha.water
Phase-1 volume fraction = 0.499991  Min(alpha.water) = -1.70977e-08  Max(alpha.water) = 1
GAMG:  Solving for p_rgh, Initial residual = 0.0242634, Final residual = 0.0001554, No Iterations 2
time step continuity errors : sum local = 4.69593e-07, global = 2.72011e-10
[adaptive_stop] t=0.000449455 normU=0.0179 maxDeltaAlpha=0.0207
GAMGPCG:  Solving for p_rgh, Initial residual = 0.0074402, Final residual = 6.88277e-10, No Iterations 5
time step continuity errors : sum local = 2.07603e-12, global = -6.1838e-17, cumulative = -6.09985e-14
ExecutionTime = 7503.67 s  ClockTime = 7566 s

Courant Number mean: 0.00455979 max: 0.930968
Interface Courant Number mean: 0.000468821 max: 0.512978
deltaT = 2.47175e-06
Time = 0.000454463s

MULES: Solving for alpha.water
MULES: Solving for alpha.water
Phase-1 volume fraction = 0.499991  Min(alpha.water) = -1.42743e-08  Max(alpha.water) = 1
MULES: Solving for alpha.water
MULES: Solving for alpha.water
Phase-1 volume fraction = 0.499991  Min(alpha.water) = -1.19172e-08  Max(alpha.water) = 1
GAMG:  Solving for p_rgh, Initial residual = 0.0245965, Final residual = 0.000166441, No Iterations 2
time step continuity errors : sum local = 4.79598e-07, global = 7.79837e-11
[adaptive_stop] t=0.000449455 normU=0.0179 maxDeltaAlpha=0.0207
GAMGPCG:  Solving for p_rgh, Initial residual = 0.00743251, Final residual = 1.21631e-09, No Iterations 5
time step continuity errors : sum local = 3.50387e-12, global = -2.35421e-16, cumulative = -6.12339e-14
ExecutionTime = 7538.26 s  ClockTime = 7601 s

Courant Number mean: 0.00445351 max: 0.933477
Interface Courant Number mean: 0.000456498 max: 0.510711
deltaT = 2.41991e-06
Time = 0.000456882s

MULES: Solving for alpha.water
MULES: Solving for alpha.water
Phase-1 volume fraction = 0.499991  Min(alpha.water) = -9.95746e-09  Max(alpha.water) = 1
MULES: Solving for alpha.water
MULES: Solving for alpha.water
Phase-1 volume fraction = 0.499991  Min(alpha.water) = -8.32001e-09  Max(alpha.water) = 1
[adaptive_stop] t=0.000449455 normU=0.0179 maxDeltaAlpha=0.0207
GAMG:  Solving for p_rgh, Initial residual = 0.0243406, Final residual = 0.000149044, No Iterations 2
time step continuity errors : sum local = 4.16373e-07, global = 2.14386e-10
GAMGPCG:  Solving for p_rgh, Initial residual = 0.00735056, Final residual = 6.41572e-10, No Iterations 5
time step continuity errors : sum local = 1.79061e-12, global = -1.45058e-15, cumulative = -6.26845e-14
ExecutionTime = 7574.1 s  ClockTime = 7637 s

Courant Number mean: 0.00436858 max: 0.938005
Interface Courant Number mean: 0.000447322 max: 0.50713
deltaT = 2.38587e-06
Time = 0.000459268s

[adaptive_stop] t=0.000449455 normU=0.0179 maxDeltaAlpha=0.0207
MULES: Solving for alpha.water
MULES: Solving for alpha.water
Phase-1 volume fraction = 0.499991  Min(alpha.water) = -6.96368e-09  Max(alpha.water) = 1
MULES: Solving for alpha.water
MULES: Solving for alpha.water
Phase-1 volume fraction = 0.499991  Min(alpha.water) = -5.82846e-09  Max(alpha.water) = 1
GAMG:  Solving for p_rgh, Initial residual = 0.0229803, Final residual = 0.000140397, No Iterations 2
time step continuity errors : sum local = 3.82901e-07, global = 1.71617e-10
GAMGPCG:  Solving for p_rgh, Initial residual = 0.00692292, Final residual = 1.74815e-09, No Iterations 5
time step continuity errors : sum local = 4.76491e-12, global = 1.55032e-15, cumulative = -6.11341e-14
ExecutionTime = 7609.74 s  ClockTime = 7674 s

Courant Number mean: 0.00431637 max: 0.939744
Interface Courant Number mean: 0.000440812 max: 0.516141
deltaT = 2.31125e-06
Time = 0.00046158s

[adaptive_stop] t=0.000449455 normU=0.0179 maxDeltaAlpha=0.0207
MULES: Solving for alpha.water
MULES: Solving for alpha.water
Phase-1 volume fraction = 0.499991  Min(alpha.water) = -4.90382e-09  Max(alpha.water) = 1
MULES: Solving for alpha.water
MULES: Solving for alpha.water
Phase-1 volume fraction = 0.499991  Min(alpha.water) = -4.12587e-09  Max(alpha.water) = 1
GAMG:  Solving for p_rgh, Initial residual = 0.0224545, Final residual = 0.000139387, No Iterations 2
time step continuity errors : sum local = 3.59299e-07, global = 4.6088e-11
GAMGPCG:  Solving for p_rgh, Initial residual = 0.00679443, Final residual = 5.80427e-10, No Iterations 5
time step continuity errors : sum local = 1.49453e-12, global = -6.53173e-16, cumulative = -6.17873e-14
ExecutionTime = 7645.43 s  ClockTime = 7710 s

Courant Number mean: 0.00418813 max: 0.921509
Interface Courant Number mean: 0.000425784 max: 0.51794
deltaT = 2.23119e-06
Time = 0.000463811s

[adaptive_stop] t=0.00046158 normU=0.0198 maxDeltaAlpha=0.0402
MULES: Solving for alpha.water
MULES: Solving for alpha.water
Phase-1 volume fraction = 0.499991  Min(alpha.water) = -3.49207e-09  Max(alpha.water) = 1
MULES: Solving for alpha.water
MULES: Solving for alpha.water
Phase-1 volume fraction = 0.499991  Min(alpha.water) = -2.95563e-09  Max(alpha.water) = 1
GAMG:  Solving for p_rgh, Initial residual = 0.022066, Final residual = 0.000140985, No Iterations 2
time step continuity errors : sum local = 3.40968e-07, global = 6.64934e-11
[adaptive_stop] t=0.00046158 normU=0.0198 maxDeltaAlpha=0.0402
GAMGPCG:  Solving for p_rgh, Initial residual = 0.00662191, Final residual = 1.7272e-09, No Iterations 5
time step continuity errors : sum local = 4.16965e-12, global = 5.74681e-16, cumulative = -6.12126e-14
ExecutionTime = 7681.61 s  ClockTime = 7746 s

Courant Number mean: 0.00404838 max: 0.890046
Interface Courant Number mean: 0.00040991 max: 0.517995
deltaT = 2.15366e-06
Time = 0.000465964s

MULES: Solving for alpha.water
MULES: Solving for alpha.water
Phase-1 volume fraction = 0.499991  Min(alpha.water) = -2.51825e-09  Max(alpha.water) = 1
MULES: Solving for alpha.water
MULES: Solving for alpha.water
Phase-1 volume fraction = 0.499991  Min(alpha.water) = -2.14559e-09  Max(alpha.water) = 1
GAMG:  Solving for p_rgh, Initial residual = 0.0213502, Final residual = 0.000137663, No Iterations 2
time step continuity errors : sum local = 3.11867e-07, global = 2.18013e-10
[adaptive_stop] t=0.00046158 normU=0.0198 maxDeltaAlpha=0.0402
GAMGPCG:  Solving for p_rgh, Initial residual = 0.0064474, Final residual = 5.95948e-10, No Iterations 5
time step continuity errors : sum local = 1.34968e-12, global = -4.98358e-16, cumulative = -6.1711e-14
ExecutionTime = 7717.65 s  ClockTime = 7783 s

Courant Number mean: 0.00391316 max: 0.849727
Interface Courant Number mean: 0.000394756 max: 0.51764
deltaT = 2.08027e-06
Time = 0.000468045s

MULES: Solving for alpha.water
MULES: Solving for alpha.water
Phase-1 volume fraction = 0.499991  Min(alpha.water) = -2.01344e-09  Max(alpha.water) = 1
MULES: Solving for alpha.water
MULES: Solving for alpha.water
Phase-1 volume fraction = 0.499991  Min(alpha.water) = -1.92128e-09  Max(alpha.water) = 1
[adaptive_stop] t=0.00046158 normU=0.0198 maxDeltaAlpha=0.0402
GAMG:  Solving for p_rgh, Initial residual = 0.0205565, Final residual = 0.0001392, No Iterations 2
time step continuity errors : sum local = 2.96481e-07, global = 1.07452e-10
GAMGPCG:  Solving for p_rgh, Initial residual = 0.00614906, Final residual = 1.52618e-09, No Iterations 5
time step continuity errors : sum local = 3.2493e-12, global = 9.66586e-16, cumulative = -6.07444e-14
ExecutionTime = 7753.36 s  ClockTime = 7819 s

Courant Number mean: 0.00378476 max: 0.828566
Interface Courant Number mean: 0.000381102 max: 0.517074
deltaT = 2.01156e-06
Time = 0.000470056s

MULES: Solving for alpha.water
[adaptive_stop] t=0.00046158 normU=0.0198 maxDeltaAlpha=0.0402
MULES: Solving for alpha.water
Phase-1 volume fraction = 0.499991  Min(alpha.water) = -1.83851e-09  Max(alpha.water) = 1
MULES: Solving for alpha.water
MULES: Solving for alpha.water
Phase-1 volume fraction = 0.499991  Min(alpha.water) = -1.7593e-09  Max(alpha.water) = 1
GAMG:  Solving for p_rgh, Initial residual = 0.0196561, Final residual = 0.000134831, No Iterations 2
time step continuity errors : sum local = 2.70692e-07, global = 8.58569e-11
GAMGPCG:  Solving for p_rgh, Initial residual = 0.00600326, Final residual = 6.30818e-10, No Iterations 5
time step continuity errors : sum local = 1.26516e-12, global = -1.60382e-15, cumulative = -6.23482e-14
ExecutionTime = 7788.48 s  ClockTime = 7854 s

Courant Number mean: 0.00366322 max: 0.844144
Interface Courant Number mean: 0.000367675 max: 0.51641
deltaT = 1.94763e-06
Time = 0.000472004s

[adaptive_stop] t=0.00046158 normU=0.0198 maxDeltaAlpha=0.0402
MULES: Solving for alpha.water
MULES: Solving for alpha.water
Phase-1 volume fraction = 0.499991  Min(alpha.water) = -1.68796e-09  Max(alpha.water) = 1
MULES: Solving for alpha.water
MULES: Solving for alpha.water
Phase-1 volume fraction = 0.499991  Min(alpha.water) = -1.6195e-09  Max(alpha.water) = 1
GAMG:  Solving for p_rgh, Initial residual = 0.0188619, Final residual = 0.000126117, No Iterations 2
time step continuity errors : sum local = 2.38305e-07, global = 8.16265e-11
GAMGPCG:  Solving for p_rgh, Initial residual = 0.00567585, Final residual = 1.27034e-09, No Iterations 5
time step continuity errors : sum local = 2.39792e-12, global = 2.77816e-15, cumulative = -5.95701e-14
ExecutionTime = 7823.37 s  ClockTime = 7889 s

Courant Number mean: 0.00355049 max: 0.845763
Interface Courant Number mean: 0.000354807 max: 0.516146
deltaT = 1.88669e-06
Time = 0.000473891s

[adaptive_stop] t=0.000472004 normU=0.0157 maxDeltaAlpha=0.0519
MULES: Solving for alpha.water
MULES: Solving for alpha.water
Phase-1 volume fraction = 0.499991  Min(alpha.water) = -1.55771e-09  Max(alpha.water) = 1
MULES: Solving for alpha.water
MULES: Solving for alpha.water
Phase-1 volume fraction = 0.499991  Min(alpha.water) = -1.49827e-09  Max(alpha.water) = 1
GAMG:  Solving for p_rgh, Initial residual = 0.0187045, Final residual = 0.000116505, No Iterations 2
time step continuity errors : sum local = 2.07748e-07, global = -3.46515e-11
[adaptive_stop] t=0.000472004 normU=0.0157 maxDeltaAlpha=0.0519
GAMGPCG:  Solving for p_rgh, Initial residual = 0.0055204, Final residual = 4.58832e-10, No Iterations 5
time step continuity errors : sum local = 8.18107e-13, global = 7.31612e-16, cumulative = -5.88384e-14
ExecutionTime = 7860.05 s  ClockTime = 7927 s

Courant Number mean: 0.00344349 max: 0.836909
Interface Courant Number mean: 0.000342729 max: 0.515485
deltaT = 1.83001e-06
Time = 0.000475721s

MULES: Solving for alpha.water
MULES: Solving for alpha.water
Phase-1 volume fraction = 0.499991  Min(alpha.water) = -1.44444e-09  Max(alpha.water) = 1
MULES: Solving for alpha.water
MULES: Solving for alpha.water
Phase-1 volume fraction = 0.499991  Min(alpha.water) = -1.39254e-09  Max(alpha.water) = 1
GAMG:  Solving for p_rgh, Initial residual = 0.0183376, Final residual = 0.000119465, No Iterations 2
time step continuity errors : sum local = 2.01693e-07, global = 6.92392e-11
[adaptive_stop] t=0.000472004 normU=0.0157 maxDeltaAlpha=0.0519
GAMGPCG:  Solving for p_rgh, Initial residual = 0.0054074, Final residual = 4.91496e-10, No Iterations 5
time step continuity errors : sum local = 8.29508e-13, global = -1.91055e-16, cumulative = -5.90295e-14
ExecutionTime = 7895.9 s  ClockTime = 7963 s

Courant Number mean: 0.00334407 max: 0.823252
Interface Courant Number mean: 0.000332321 max: 0.514769
deltaT = 1.7775e-06
Time = 0.000477498s

MULES: Solving for alpha.water
MULES: Solving for alpha.water
Phase-1 volume fraction = 0.499991  Min(alpha.water) = -1.34535e-09  Max(alpha.water) = 1
MULES: Solving for alpha.water
MULES: Solving for alpha.water
Phase-1 volume fraction = 0.499991  Min(alpha.water) = -1.29975e-09  Max(alpha.water) = 1
GAMG:  Solving for p_rgh, Initial residual = 0.0184423, Final residual = 0.000137293, No Iterations 2
[adaptive_stop] t=0.000472004 normU=0.0157 maxDeltaAlpha=0.0519
time step continuity errors : sum local = 2.2032e-07, global = 1.29361e-11
GAMGPCG:  Solving for p_rgh, Initial residual = 0.00560468, Final residual = 4.62873e-10, No Iterations 5
time step continuity errors : sum local = 7.42349e-13, global = 1.15028e-15, cumulative = -5.78792e-14
ExecutionTime = 7931.53 s  ClockTime = 7999 s

Courant Number mean: 0.00325225 max: 0.807871
Interface Courant Number mean: 0.000322496 max: 0.514237
deltaT = 1.72829e-06
Time = 0.000479226s

MULES: Solving for alpha.water
MULES: Solving for alpha.water
Phase-1 volume fraction = 0.499991  Min(alpha.water) = -1.74115e-09  Max(alpha.water) = 1
MULES: Solving for alpha.water
MULES: Solving for alpha.water
[adaptive_stop] t=0.000472004 normU=0.0157 maxDeltaAlpha=0.0519
Phase-1 volume fraction = 0.499991  Min(alpha.water) = -5.70729e-09  Max(alpha.water) = 1
GAMG:  Solving for p_rgh, Initial residual = 0.0176341, Final residual = 0.000132073, No Iterations 2
time step continuity errors : sum local = 2.01359e-07, global = 5.58368e-11
GAMGPCG:  Solving for p_rgh, Initial residual = 0.00542621, Final residual = 8.69524e-10, No Iterations 5
time step continuity errors : sum local = 1.32577e-12, global = 1.00614e-15, cumulative = -5.68731e-14
ExecutionTime = 7967.27 s  ClockTime = 8035 s

Courant Number mean: 0.00316572 max: 0.789759
Interface Courant Number mean: 0.000312912 max: 0.513824
deltaT = 1.68179e-06
Time = 0.000480908s

[adaptive_stop] t=0.000472004 normU=0.0157 maxDeltaAlpha=0.0519
MULES: Solving for alpha.water
MULES: Solving for alpha.water
Phase-1 volume fraction = 0.499991  Min(alpha.water) = -1.02059e-08  Max(alpha.water) = 1
MULES: Solving for alpha.water
MULES: Solving for alpha.water
Phase-1 volume fraction = 0.499991  Min(alpha.water) = -1.14375e-09  Max(alpha.water) = 1
GAMG:  Solving for p_rgh, Initial residual = 0.0171386, Final residual = 0.000118264, No Iterations 2
time step continuity errors : sum local = 1.71734e-07, global = 8.43074e-11
GAMGPCG:  Solving for p_rgh, Initial residual = 0.00519772, Final residual = 6.15044e-10, No Iterations 5
time step continuity errors : sum local = 8.93091e-13, global = 2.93324e-16, cumulative = -5.65798e-14
ExecutionTime = 8003.01 s  ClockTime = 8071 s

Courant Number mean: 0.00308348 max: 0.770137
Interface Courant Number mean: 0.000304259 max: 0.513422
deltaT = 1.63782e-06
Time = 0.000482546s

[adaptive_stop] t=0.000480908 normU=0.0141 maxDeltaAlpha=0.065
MULES: Solving for alpha.water
MULES: Solving for alpha.water
Phase-1 volume fraction = 0.499991  Min(alpha.water) = -1.97155e-08  Max(alpha.water) = 1
MULES: Solving for alpha.water
MULES: Solving for alpha.water
Phase-1 volume fraction = 0.499991  Min(alpha.water) = -3.63452e-08  Max(alpha.water) = 1
GAMG:  Solving for p_rgh, Initial residual = 0.0158068, Final residual = 0.000107261, No Iterations 2
time step continuity errors : sum local = 1.48842e-07, global = -2.66023e-12
[adaptive_stop] t=0.000480908 normU=0.0141 maxDeltaAlpha=0.065
GAMGPCG:  Solving for p_rgh, Initial residual = 0.00482807, Final residual = 4.46892e-10, No Iterations 5
time step continuity errors : sum local = 6.19829e-13, global = -2.41499e-17, cumulative = -5.66039e-14
ExecutionTime = 8038.53 s  ClockTime = 8107 s

Courant Number mean: 0.0030058 max: 0.730811
Interface Courant Number mean: 0.000295938 max: 0.423701
deltaT = 1.93275e-06
Time = 0.000484479s

MULES: Solving for alpha.water
MULES: Solving for alpha.water
Phase-1 volume fraction = 0.499991  Min(alpha.water) = -5.30524e-08  Max(alpha.water) = 1
MULES: Solving for alpha.water
MULES: Solving for alpha.water
Phase-1 volume fraction = 0.499991  Min(alpha.water) = -5.30524e-08  Max(alpha.water) = 1
