Case: case_H0.0083_D0.0083_flat_tilt_T20.0_m0.00013
Starting fresh simulation...
# commands to be run in OpenFOAM environment
of13  gmshToFoam cylinder.msh
/*---------------------------------------------------------------------------*\
  =========                 |
  \\      /  F ield         | OpenFOAM: The Open Source CFD Toolbox
   \\    /   O peration     | Website:  https://openfoam.org
    \\  /    A nd           | Version:  13
     \\/     M anipulation  |
\*---------------------------------------------------------------------------*/
Build  : 13-cde978a97c93
Exec   : gmshToFoam cylinder.msh
Date   : Jan 30 2026
Time   : 16:19:22
Host   : "node2335.oscar.ccv.brown.edu"
PID    : 301408
I/O    : uncollated
Case   : //work
nProcs : 1
sigFpe : Enabling floating point exception trapping (FOAM_SIGFPE).
fileModificationChecking : Monitoring run-time modified files using timeStampMaster (fileModificationSkew 10)
allowSystemOperations : Allowing user-supplied system call operations

// * * * * * * * * * * * * * * * * * * * * * * * * * * * * * * * * * * * * * //
Create time

--> FOAM Warning : 
    From function Foam::functionObjectList::functionObjectList(const Foam::Time&, bool)
    in file db/functionObjects/functionObjectList/functionObjectList.C at line 253
    Both "system/functions" and "system/controlDict/functions" found, the latter will be ignored.
Starting to read mesh format at line 2
Read format version 2.2  ascii 0

Starting to read physical names at line 5
Physical names:3
    Surface 1	atmosphere
    Surface 2	walls
    Volume 3	internalMesh

Starting to read points at line 11
Vertices to be read:144247
Vertices read:144247

Starting to read cells at line 144261
Cells to be read:836813

Mapping region 2 to Foam patch 0
Mapping region 1 to Foam patch 1
Mapping region 3 to Foam cellZone 0
Cells:
    total:792015
    hex  :0
    prism:0
    pyr  :0
    tet  :792015

CellZones:
Zone	Size
    0	792015

Skipping tag  at line 981077
Patch 0 gets name walls
Patch 1 gets name atmosphere

Finding faces of patch 0
Finding faces of patch 1

FaceZones:
Zone	Size

Writing zone 0 to cellZone internalMesh and cellSet
End

of13  setFields
/*---------------------------------------------------------------------------*\
  =========                 |
  \\      /  F ield         | OpenFOAM: The Open Source CFD Toolbox
   \\    /   O peration     | Website:  https://openfoam.org
    \\  /    A nd           | Version:  13
     \\/     M anipulation  |
\*---------------------------------------------------------------------------*/
Build  : 13-cde978a97c93
Exec   : setFields
Date   : Jan 30 2026
Time   : 16:19:28
Host   : "node2335.oscar.ccv.brown.edu"
PID    : 302161
I/O    : uncollated
Case   : //work
nProcs : 1
sigFpe : Enabling floating point exception trapping (FOAM_SIGFPE).
fileModificationChecking : Monitoring run-time modified files using timeStampMaster (fileModificationSkew 10)
allowSystemOperations : Allowing user-supplied system call operations

// * * * * * * * * * * * * * * * * * * * * * * * * * * * * * * * * * * * * * //
Create time

--> FOAM Warning : 
    From function Foam::functionObjectList::functionObjectList(const Foam::Time&, bool)
    in file db/functionObjects/functionObjectList/functionObjectList.C at line 253
    Both "system/functions" and "system/controlDict/functions" found, the latter will be ignored.
Create mesh for time = 0

Reading "setFieldsDict"

Setting field default values
    Setting volScalarField::Internal alpha.water

Setting field zone values
Zone: water
    Setting volScalarField::Internal alpha.water

End

Running in serial...
/*---------------------------------------------------------------------------*\
  =========                 |
  \\      /  F ield         | OpenFOAM: The Open Source CFD Toolbox
   \\    /   O peration     | Website:  https://openfoam.org
    \\  /    A nd           | Version:  13
     \\/     M anipulation  |
\*---------------------------------------------------------------------------*/
Build  : 13-cde978a97c93
Exec   : foamRun
Date   : Jan 30 2026
Time   : 16:19:29
Host   : "node2335.oscar.ccv.brown.edu"
PID    : 303454
I/O    : uncollated
Case   : //work
nProcs : 1
sigFpe : Enabling floating point exception trapping (FOAM_SIGFPE).
fileModificationChecking : Monitoring run-time modified files using timeStampMaster (fileModificationSkew 10)
allowSystemOperations : Allowing user-supplied system call operations

// * * * * * * * * * * * * * * * * * * * * * * * * * * * * * * * * * * * * * //
Create time

--> FOAM Warning : 
    From function Foam::functionObjectList::functionObjectList(const Foam::Time&, bool)
    in file db/functionObjects/functionObjectList/functionObjectList.C at line 253
    Both "system/functions" and "system/controlDict/functions" found, the latter will be ignored.
Create mesh for time = 0

Selecting fvMeshMover motionSolver
Selecting motion solver: solidBody
Selecting solid-body motion function sixDoFMotion
Selecting solver incompressibleVoF
Selecting viscosity model constant
Selecting viscosity model constant
No MRF models present

Courant Number mean: 0 max: 0
Interface Courant Number mean: 0 max: 0
Selecting turbulence model type laminar
    Selecting laminar stress model Stokes
GAMGPCG:  Solving for pcorr, Initial residual = 0, Final residual = 0, No Iterations 0

PIMPLE: No convergence criteria found


PIMPLE: Operating solver in transient mode with 1 outer corrector
PIMPLE: Operating solver in PISO mode



Starting time loop

Constructing face momentum Uf
Courant Number mean: 0 max: 0
Interface Courant Number mean: 0 max: 0
deltaT = 0.000119962
Time = 0.000119962s

Adaptive stop enabled: watching norm(U)/numel(U) and interface stillness (alpha.water).
[adaptive_stop] t=0 normU=0 maxDeltaAlpha=n/a
MULES: Solving for alpha.water
MULES: Solving for alpha.water
Phase-1 volume fraction = 0.500033  Min(alpha.water) = -1.30309e-17  Max(alpha.water) = 1
MULES: Solving for alpha.water
MULES: Solving for alpha.water
Phase-1 volume fraction = 0.500033  Min(alpha.water) = -1.30309e-17  Max(alpha.water) = 1
GAMG:  Solving for p_rgh, Initial residual = 1, Final residual = 0.00481794, No Iterations 2
time step continuity errors : sum local = 0.00415991, global = 1.71112e-06
GAMGPCG:  Solving for p_rgh, Initial residual = 0.151718, Final residual = 5.69696e-10, No Iterations 6
time step continuity errors : sum local = 1.18986e-09, global = -1.60963e-12, cumulative = -1.60963e-12
ExecutionTime = 21.1218 s  ClockTime = 22 s

Courant Number mean: 0.63418 max: 195.957
Interface Courant Number mean: 0 max: 0
deltaT = 6.12182e-07
Time = 0.000120574s

MULES: Solving for alpha.water
MULES: Solving for alpha.water
Phase-1 volume fraction = 0.500033  Min(alpha.water) = -8.31384e-18  Max(alpha.water) = 1
MULES: Solving for alpha.water
MULES: Solving for alpha.water
Phase-1 volume fraction = 0.500033  Min(alpha.water) = -1.53098e-18  Max(alpha.water) = 1
GAMG:  Solving for p_rgh, Initial residual = 0.646415, Final residual = 0.00576594, No Iterations 2
time step continuity errors : sum local = 5.31081e-06, global = -5.33189e-09
GAMGPCG:  Solving for p_rgh, Initial residual = 0.134233, Final residual = 4.96051e-10, No Iterations 6
time step continuity errors : sum local = 1.51463e-12, global = 4.63807e-15, cumulative = -1.605e-12
ExecutionTime = 35.9544 s  ClockTime = 37 s

Courant Number mean: 0.00245731 max: 0.719128
Interface Courant Number mean: 0.000230412 max: 0.460473
deltaT = 6.64732e-07
Time = 0.000121239s

[adaptive_stop] t=0 normU=0 maxDeltaAlpha=n/a
MULES: Solving for alpha.water
MULES: Solving for alpha.water
Phase-1 volume fraction = 0.500033  Min(alpha.water) = -1.00475e-18  Max(alpha.water) = 1
MULES: Solving for alpha.water
MULES: Solving for alpha.water
Phase-1 volume fraction = 0.500033  Min(alpha.water) = -1.86881e-18  Max(alpha.water) = 1
GAMG:  Solving for p_rgh, Initial residual = 0.0323763, Final residual = 0.000102288, No Iterations 3
time step continuity errors : sum local = 1.36637e-06, global = 2.91994e-08
GAMGPCG:  Solving for p_rgh, Initial residual = 0.0273765, Final residual = 1.93321e-09, No Iterations 5
time step continuity errors : sum local = 1.90305e-11, global = 1.10652e-15, cumulative = -1.60389e-12
ExecutionTime = 50.1374 s  ClockTime = 51 s

Courant Number mean: 0.00238854 max: 0.608352
Interface Courant Number mean: 0.000207527 max: 0.387135
deltaT = 7.97677e-07
Time = 0.000122036s

MULES: Solving for alpha.water
MULES: Solving for alpha.water
Phase-1 volume fraction = 0.500033  Min(alpha.water) = -7.64283e-11  Max(alpha.water) = 1
MULES: Solving for alpha.water
MULES: Solving for alpha.water
Phase-1 volume fraction = 0.500033  Min(alpha.water) = -7.48912e-11  Max(alpha.water) = 1
GAMG:  Solving for p_rgh, Initial residual = 0.0415707, Final residual = 0.000390877, No Iterations 2
time step continuity errors : sum local = 2.39094e-06, global = 1.03086e-09
GAMGPCG:  Solving for p_rgh, Initial residual = 0.0215334, Final residual = 1.03325e-10, No Iterations 6
time step continuity errors : sum local = 5.82091e-13, global = -7.79761e-16, cumulative = -1.60467e-12
ExecutionTime = 64.9513 s  ClockTime = 66 s

Courant Number mean: 0.00264734 max: 0.558341
Interface Courant Number mean: 0.000234902 max: 0.403673
deltaT = 9.57211e-07
Time = 0.000122993s

[adaptive_stop] t=0 normU=0 maxDeltaAlpha=n/a
MULES: Solving for alpha.water
MULES: Solving for alpha.water
Phase-1 volume fraction = 0.500033  Min(alpha.water) = -7.33678e-11  Max(alpha.water) = 1
MULES: Solving for alpha.water
MULES: Solving for alpha.water
Phase-1 volume fraction = 0.500033  Min(alpha.water) = -7.18753e-11  Max(alpha.water) = 1
GAMG:  Solving for p_rgh, Initial residual = 0.0299256, Final residual = 0.00022947, No Iterations 2
time step continuity errors : sum local = 1.15172e-06, global = 2.14219e-10
GAMGPCG:  Solving for p_rgh, Initial residual = 0.0138826, Final residual = 1.12922e-09, No Iterations 5
time step continuity errors : sum local = 5.40147e-12, global = 4.08804e-15, cumulative = -1.60058e-12
ExecutionTime = 78.9433 s  ClockTime = 80 s

Courant Number mean: 0.00295688 max: 0.610255
Interface Courant Number mean: 0.000266799 max: 0.419541
deltaT = 1.14078e-06
Time = 0.000124134s

MULES: Solving for alpha.water
MULES: Solving for alpha.water
Phase-1 volume fraction = 0.500033  Min(alpha.water) = -7.01758e-11  Max(alpha.water) = 1
MULES: Solving for alpha.water
MULES: Solving for alpha.water
Phase-1 volume fraction = 0.500033  Min(alpha.water) = -6.85164e-11  Max(alpha.water) = 1
GAMG:  Solving for p_rgh, Initial residual = 0.0246551, Final residual = 0.000159599, No Iterations 2
time step continuity errors : sum local = 8.69404e-07, global = 6.10731e-10
GAMGPCG:  Solving for p_rgh, Initial residual = 0.0106961, Final residual = 8.04844e-10, No Iterations 5
time step continuity errors : sum local = 4.2114e-12, global = -5.40795e-15, cumulative = -1.60599e-12
ExecutionTime = 92.989 s  ClockTime = 94 s

Courant Number mean: 0.00329197 max: 0.653442
Interface Courant Number mean: 0.00030015 max: 0.441385
deltaT = 1.29227e-06
Time = 0.000125426s

[adaptive_stop] t=0.000122993 normU=0.104 maxDeltaAlpha=0.0555
MULES: Solving for alpha.water
MULES: Solving for alpha.water
Phase-1 volume fraction = 0.500033  Min(alpha.water) = -6.67515e-11  Max(alpha.water) = 1
MULES: Solving for alpha.water
MULES: Solving for alpha.water
Phase-1 volume fraction = 0.500033  Min(alpha.water) = -6.50322e-11  Max(alpha.water) = 1
GAMG:  Solving for p_rgh, Initial residual = 0.023238, Final residual = 0.000160796, No Iterations 2
time step continuity errors : sum local = 9.19701e-07, global = 3.86697e-10
GAMGPCG:  Solving for p_rgh, Initial residual = 0.00953795, Final residual = 7.21496e-10, No Iterations 5
time step continuity errors : sum local = 4.0026e-12, global = -5.44548e-15, cumulative = -1.61143e-12
ExecutionTime = 107.209 s  ClockTime = 109 s

Courant Number mean: 0.00350286 max: 0.798424
Interface Courant Number mean: 0.000321748 max: 0.467149
deltaT = 1.38314e-06
Time = 0.00012681s

MULES: Solving for alpha.water
MULES: Solving for alpha.water
Phase-1 volume fraction = 0.500033  Min(alpha.water) = -6.33269e-11  Max(alpha.water) = 1
MULES: Solving for alpha.water
MULES: Solving for alpha.water
Phase-1 volume fraction = 0.500033  Min(alpha.water) = -6.16664e-11  Max(alpha.water) = 1
GAMG:  Solving for p_rgh, Initial residual = 0.0217128, Final residual = 0.000125242, No Iterations 2
time step continuity errors : sum local = 7.11305e-07, global = 6.00218e-10
GAMGPCG:  Solving for p_rgh, Initial residual = 0.00836641, Final residual = 6.4485e-10, No Iterations 5
time step continuity errors : sum local = 3.57277e-12, global = -4.33412e-15, cumulative = -1.61577e-12
ExecutionTime = 121.683 s  ClockTime = 123 s

Courant Number mean: 0.0035467 max: 0.890599
Interface Courant Number mean: 0.000327021 max: 0.486801
deltaT = 1.42064e-06
Time = 0.00012823s

[adaptive_stop] t=0.000122993 normU=0.104 maxDeltaAlpha=0.0555
MULES: Solving for alpha.water
MULES: Solving for alpha.water
Phase-1 volume fraction = 0.500033  Min(alpha.water) = -6.01039e-11  Max(alpha.water) = 1
MULES: Solving for alpha.water
MULES: Solving for alpha.water
Phase-1 volume fraction = 0.500033  Min(alpha.water) = -5.85809e-11  Max(alpha.water) = 1
GAMG:  Solving for p_rgh, Initial residual = 0.0201602, Final residual = 0.000111324, No Iterations 2
time step continuity errors : sum local = 5.98662e-07, global = 5.86902e-10
GAMGPCG:  Solving for p_rgh, Initial residual = 0.00738571, Final residual = 6.02664e-10, No Iterations 5
time step continuity errors : sum local = 3.17974e-12, global = 1.86904e-15, cumulative = -1.6139e-12
ExecutionTime = 136.094 s  ClockTime = 138 s

Courant Number mean: 0.00347102 max: 0.919466
Interface Courant Number mean: 0.000324614 max: 0.478721
deltaT = 1.48378e-06
Time = 0.000129714s

MULES: Solving for alpha.water
MULES: Solving for alpha.water
Phase-1 volume fraction = 0.500033  Min(alpha.water) = -5.71375e-11  Max(alpha.water) = 1
MULES: Solving for alpha.water
MULES: Solving for alpha.water
Phase-1 volume fraction = 0.500033  Min(alpha.water) = -5.57297e-11  Max(alpha.water) = 1
GAMG:  Solving for p_rgh, Initial residual = 0.0195685, Final residual = 0.000107763, No Iterations 2
time step continuity errors : sum local = 5.78055e-07, global = 2.8972e-10
GAMGPCG:  Solving for p_rgh, Initial residual = 0.00698666, Final residual = 5.46731e-10, No Iterations 5
time step continuity errors : sum local = 2.88359e-12, global = -8.57285e-16, cumulative = -1.61476e-12
ExecutionTime = 150.449 s  ClockTime = 152 s

Courant Number mean: 0.00347116 max: 0.939798
Interface Courant Number mean: 0.000329823 max: 0.419963
deltaT = 1.57883e-06
Time = 0.000131293s

MULES: Solving for alpha.water
[adaptive_stop] t=0.000129714 normU=0.0666 maxDeltaAlpha=0.0999
MULES: Solving for alpha.water
Phase-1 volume fraction = 0.500033  Min(alpha.water) = -5.43882e-11  Max(alpha.water) = 1
MULES: Solving for alpha.water
MULES: Solving for alpha.water
Phase-1 volume fraction = 0.500033  Min(alpha.water) = -5.30791e-11  Max(alpha.water) = 1
GAMG:  Solving for p_rgh, Initial residual = 0.0189587, Final residual = 0.000100039, No Iterations 2
time step continuity errors : sum local = 5.56824e-07, global = 8.50112e-10
GAMGPCG:  Solving for p_rgh, Initial residual = 0.00658552, Final residual = 4.95922e-10, No Iterations 5
time step continuity errors : sum local = 2.71656e-12, global = -5.78833e-15, cumulative = -1.62054e-12
ExecutionTime = 164.959 s  ClockTime = 167 s

Courant Number mean: 0.00354839 max: 0.962239
Interface Courant Number mean: 0.00034234 max: 0.358109
deltaT = 1.64079e-06
Time = 0.000132934s

MULES: Solving for alpha.water
MULES: Solving for alpha.water
Phase-1 volume fraction = 0.500033  Min(alpha.water) = -6.62905e-11  Max(alpha.water) = 1
MULES: Solving for alpha.water
MULES: Solving for alpha.water
Phase-1 volume fraction = 0.500033  Min(alpha.water) = -6.35696e-11  Max(alpha.water) = 1
GAMG:  Solving for p_rgh, Initial residual = 0.0179572, Final residual = 9.64628e-05, No Iterations 2
time step continuity errors : sum local = 5.33561e-07, global = 7.38529e-10
GAMGPCG:  Solving for p_rgh, Initial residual = 0.00606822, Final residual = 4.76859e-10, No Iterations 5
time step continuity errors : sum local = 2.60181e-12, global = -2.49413e-15, cumulative = -1.62304e-12
ExecutionTime = 179.386 s  ClockTime = 181 s

Courant Number mean: 0.0035576 max: 0.967069
Interface Courant Number mean: 0.000350743 max: 0.366384
deltaT = 1.69665e-06
Time = 0.00013463s

MULES: Solving for alpha.water
MULES: Solving for alpha.water
Phase-1 volume fraction = 0.500033  Min(alpha.water) = -6.1176e-11  Max(alpha.water) = 1
MULES: Solving for alpha.water
MULES: Solving for alpha.water
Phase-1 volume fraction = 0.500033  Min(alpha.water) = -5.88725e-11  Max(alpha.water) = 1
[adaptive_stop] t=0.000129714 normU=0.0666 maxDeltaAlpha=0.0999
GAMG:  Solving for p_rgh, Initial residual = 0.017254, Final residual = 9.30758e-05, No Iterations 2
time step continuity errors : sum local = 5.10048e-07, global = 9.07981e-10
GAMGPCG:  Solving for p_rgh, Initial residual = 0.00584797, Final residual = 4.50157e-10, No Iterations 5
time step continuity errors : sum local = 2.43595e-12, global = -4.19086e-15, cumulative = -1.62723e-12
ExecutionTime = 193.744 s  ClockTime = 196 s

Courant Number mean: 0.00356254 max: 0.945651
Interface Courant Number mean: 0.000362491 max: 0.379793
deltaT = 1.79415e-06
Time = 0.000136424s

MULES: Solving for alpha.water
MULES: Solving for alpha.water
Phase-1 volume fraction = 0.500033  Min(alpha.water) = -5.68184e-11  Max(alpha.water) = 1
MULES: Solving for alpha.water
MULES: Solving for alpha.water
Phase-1 volume fraction = 0.500033  Min(alpha.water) = -5.4836e-11  Max(alpha.water) = 1
GAMG:  Solving for p_rgh, Initial residual = 0.0174365, Final residual = 9.17807e-05, No Iterations 2
time step continuity errors : sum local = 5.20322e-07, global = 9.97195e-10
GAMGPCG:  Solving for p_rgh, Initial residual = 0.00580914, Final residual = 3.94349e-10, No Iterations 5
time step continuity errors : sum local = 2.20926e-12, global = -3.21224e-15, cumulative = -1.63044e-12
ExecutionTime = 208.144 s  ClockTime = 210 s

Courant Number mean: 0.00365611 max: 0.9333
Interface Courant Number mean: 0.000380619 max: 0.370924
deltaT = 1.92235e-06
Time = 0.000138347s

MULES: Solving for alpha.water
MULES: Solving for alpha.water
Phase-1 volume fraction = 0.500033  Min(alpha.water) = -5.30541e-11  Max(alpha.water) = 1
MULES: Solving for alpha.water
MULES: Solving for alpha.water
Phase-1 volume fraction = 0.500033  Min(alpha.water) = -5.13301e-11  Max(alpha.water) = 1
[adaptive_stop] t=0.000129714 normU=0.0666 maxDeltaAlpha=0.0999
GAMG:  Solving for p_rgh, Initial residual = 0.0173853, Final residual = 9.34129e-05, No Iterations 2
time step continuity errors : sum local = 5.60507e-07, global = 7.62199e-10
GAMGPCG:  Solving for p_rgh, Initial residual = 0.00586252, Final residual = 4.26856e-10, No Iterations 5
time step continuity errors : sum local = 2.53356e-12, global = -2.94031e-15, cumulative = -1.63338e-12
ExecutionTime = 222.524 s  ClockTime = 225 s

Courant Number mean: 0.00380818 max: 0.928349
Interface Courant Number mean: 0.000405647 max: 0.357171
deltaT = 2.07071e-06
Time = 0.000140417s

MULES: Solving for alpha.water
MULES: Solving for alpha.water
Phase-1 volume fraction = 0.500033  Min(alpha.water) = -4.9815e-11  Max(alpha.water) = 1
MULES: Solving for alpha.water
MULES: Solving for alpha.water
Phase-1 volume fraction = 0.500033  Min(alpha.water) = -4.83445e-11  Max(alpha.water) = 1
GAMG:  Solving for p_rgh, Initial residual = 0.0177317, Final residual = 8.8359e-05, No Iterations 2
time step continuity errors : sum local = 5.64579e-07, global = 7.73568e-10
GAMGPCG:  Solving for p_rgh, Initial residual = 0.00588031, Final residual = 3.62554e-10, No Iterations 5
time step continuity errors : sum local = 2.29058e-12, global = -3.90661e-15, cumulative = -1.63729e-12
ExecutionTime = 236.822 s  ClockTime = 239 s

Courant Number mean: 0.00399558 max: 0.926135
Interface Courant Number mean: 0.000436924 max: 0.385125
deltaT = 2.23584e-06
Time = 0.000142653s

MULES: Solving for alpha.water
MULES: Solving for alpha.water
Phase-1 volume fraction = 0.500033  Min(alpha.water) = -4.70809e-11  Max(alpha.water) = 1
MULES: Solving for alpha.water
MULES: Solving for alpha.water
Phase-1 volume fraction = 0.500033  Min(alpha.water) = -4.58504e-11  Max(alpha.water) = 1
GAMG:  Solving for p_rgh, Initial residual = 0.0185978, Final residual = 0.000103464, No Iterations 2
time step continuity errors : sum local = 7.02884e-07, global = 6.23179e-10
[adaptive_stop] t=0.000138347 normU=0.0284 maxDeltaAlpha=0.117
GAMGPCG:  Solving for p_rgh, Initial residual = 0.00615484, Final residual = 3.66207e-10, No Iterations 5
time step continuity errors : sum local = 2.46204e-12, global = -1.56857e-15, cumulative = -1.63886e-12
ExecutionTime = 251.427 s  ClockTime = 254 s

Courant Number mean: 0.00420884 max: 0.938495
Interface Courant Number mean: 0.000470275 max: 0.41185
deltaT = 2.38236e-06
Time = 0.000145036s

MULES: Solving for alpha.water
MULES: Solving for alpha.water
Phase-1 volume fraction = 0.500033  Min(alpha.water) = -4.48806e-11  Max(alpha.water) = 1
MULES: Solving for alpha.water
MULES: Solving for alpha.water
Phase-1 volume fraction = 0.500033  Min(alpha.water) = -4.39313e-11  Max(alpha.water) = 1
GAMG:  Solving for p_rgh, Initial residual = 0.0191193, Final residual = 9.82431e-05, No Iterations 2
time step continuity errors : sum local = 6.89834e-07, global = 5.63549e-10
GAMGPCG:  Solving for p_rgh, Initial residual = 0.00637881, Final residual = 4.73266e-10, No Iterations 5
time step continuity errors : sum local = 3.29078e-12, global = -3.26611e-16, cumulative = -1.63918e-12
ExecutionTime = 265.905 s  ClockTime = 268 s

Courant Number mean: 0.00438309 max: 0.992174
Interface Courant Number mean: 0.000499949 max: 0.434015
deltaT = 2.40114e-06
Time = 0.000147437s

MULES: Solving for alpha.water
MULES: Solving for alpha.water
Phase-1 volume fraction = 0.500033  Min(alpha.water) = -4.29877e-11  Max(alpha.water) = 1
MULES: Solving for alpha.water
MULES: Solving for alpha.water
Phase-1 volume fraction = 0.500033  Min(alpha.water) = -4.20643e-11  Max(alpha.water) = 1
GAMG:  Solving for p_rgh, Initial residual = 0.01968, Final residual = 0.000117948, No Iterations 2
time step continuity errors : sum local = 7.70058e-07, global = 5.64328e-10
[adaptive_stop] t=0.000138347 normU=0.0284 maxDeltaAlpha=0.117
GAMGPCG:  Solving for p_rgh, Initial residual = 0.00658924, Final residual = 4.95068e-10, No Iterations 5
time step continuity errors : sum local = 3.20755e-12, global = 2.19847e-16, cumulative = -1.63896e-12
ExecutionTime = 280.235 s  ClockTime = 283 s

Courant Number mean: 0.00432829 max: 0.984994
Interface Courant Number mean: 0.000501411 max: 0.441896
deltaT = 2.4377e-06
Time = 0.000149875s

MULES: Solving for alpha.water
MULES: Solving for alpha.water
Phase-1 volume fraction = 0.500033  Min(alpha.water) = -4.10628e-11  Max(alpha.water) = 1
MULES: Solving for alpha.water
MULES: Solving for alpha.water
Phase-1 volume fraction = 0.500033  Min(alpha.water) = -4.00851e-11  Max(alpha.water) = 1
GAMG:  Solving for p_rgh, Initial residual = 0.0199405, Final residual = 0.000114686, No Iterations 2
time step continuity errors : sum local = 7.11497e-07, global = 3.9064e-10
GAMGPCG:  Solving for p_rgh, Initial residual = 0.00683475, Final residual = 4.30432e-10, No Iterations 5
time step continuity errors : sum local = 2.64845e-12, global = 2.61046e-15, cumulative = -1.63635e-12
ExecutionTime = 294.774 s  ClockTime = 297 s

Courant Number mean: 0.00431564 max: 0.994504
Interface Courant Number mean: 0.000506793 max: 0.451625
deltaT = 2.45117e-06
Time = 0.000152326s

MULES: Solving for alpha.water
MULES: Solving for alpha.water
Phase-1 volume fraction = 0.500033  Min(alpha.water) = -3.90636e-11  Max(alpha.water) = 1
MULES: Solving for alpha.water
MULES: Solving for alpha.water
Phase-1 volume fraction = 0.500033  Min(alpha.water) = -3.80682e-11  Max(alpha.water) = 1
GAMG:  Solving for p_rgh, Initial residual = 0.0199682, Final residual = 0.000108122, No Iterations 2
time step continuity errors : sum local = 6.20061e-07, global = 4.2531e-11
[adaptive_stop] t=0.000149875 normU=0.0242 maxDeltaAlpha=0.134
GAMGPCG:  Solving for p_rgh, Initial residual = 0.00693185, Final residual = 4.81102e-10, No Iterations 5
time step continuity errors : sum local = 2.74083e-12, global = 4.30006e-16, cumulative = -1.63592e-12
ExecutionTime = 309.3 s  ClockTime = 312 s

Courant Number mean: 0.00427157 max: 0.994725
Interface Courant Number mean: 0.000505695 max: 0.473783
deltaT = 2.46415e-06
Time = 0.00015479s

MULES: Solving for alpha.water
MULES: Solving for alpha.water
Phase-1 volume fraction = 0.500033  Min(alpha.water) = -3.70282e-11  Max(alpha.water) = 1
MULES: Solving for alpha.water
MULES: Solving for alpha.water
Phase-1 volume fraction = 0.500033  Min(alpha.water) = -3.60167e-11  Max(alpha.water) = 1
GAMG:  Solving for p_rgh, Initial residual = 0.0210461, Final residual = 0.000115305, No Iterations 2
time step continuity errors : sum local = 6.14416e-07, global = 6.28021e-11
GAMGPCG:  Solving for p_rgh, Initial residual = 0.00719051, Final residual = 5.24843e-10, No Iterations 5
time step continuity errors : sum local = 2.77927e-12, global = 9.34632e-16, cumulative = -1.63499e-12
ExecutionTime = 323.808 s  ClockTime = 326 s

Courant Number mean: 0.0042355 max: 0.994303
Interface Courant Number mean: 0.00050522 max: 0.556931
deltaT = 2.21225e-06
Time = 0.000157002s

MULES: Solving for alpha.water
MULES: Solving for alpha.water
Phase-1 volume fraction = 0.500033  Min(alpha.water) = -3.4947e-11  Max(alpha.water) = 1
MULES: Solving for alpha.water
MULES: Solving for alpha.water
Phase-1 volume fraction = 0.500033  Min(alpha.water) = -3.3909e-11  Max(alpha.water) = 1
GAMG:  Solving for p_rgh, Initial residual = 0.0207029, Final residual = 0.000124695, No Iterations 2
time step continuity errors : sum local = 5.0265e-07, global = -1.01019e-10
[adaptive_stop] t=0.000149875 normU=0.0242 maxDeltaAlpha=0.134
GAMGPCG:  Solving for p_rgh, Initial residual = 0.0068734, Final residual = 6.28823e-10, No Iterations 5
time step continuity errors : sum local = 2.53569e-12, global = -1.89873e-15, cumulative = -1.63689e-12
ExecutionTime = 338.551 s  ClockTime = 341 s

Courant Number mean: 0.0037619 max: 0.888636
Interface Courant Number mean: 0.000450501 max: 0.428521
deltaT = 2.48947e-06
Time = 0.000159492s

MULES: Solving for alpha.water
MULES: Solving for alpha.water
Phase-1 volume fraction = 0.500033  Min(alpha.water) = -3.2639e-11  Max(alpha.water) = 1
MULES: Solving for alpha.water
MULES: Solving for alpha.water
Phase-1 volume fraction = 0.500033  Min(alpha.water) = -3.14165e-11  Max(alpha.water) = 1
GAMG:  Solving for p_rgh, Initial residual = 0.0220913, Final residual = 0.000111724, No Iterations 2
time step continuity errors : sum local = 5.40977e-07, global = 7.40921e-11
GAMGPCG:  Solving for p_rgh, Initial residual = 0.00755935, Final residual = 5.65525e-10, No Iterations 5
time step continuity errors : sum local = 2.69397e-12, global = -2.48849e-17, cumulative = -1.63691e-12
ExecutionTime = 353.158 s  ClockTime = 356 s

Courant Number mean: 0.00418912 max: 0.992655
Interface Courant Number mean: 0.000502356 max: 0.458371
deltaT = 2.50788e-06
Time = 0.000161999s

MULES: Solving for alpha.water
MULES: Solving for alpha.water
Phase-1 volume fraction = 0.500033  Min(alpha.water) = -3.01018e-11  Max(alpha.water) = 1
MULES: Solving for alpha.water
MULES: Solving for alpha.water
Phase-1 volume fraction = 0.500033  Min(alpha.water) = -2.8842e-11  Max(alpha.water) = 1
GAMG:  Solving for p_rgh, Initial residual = 0.0245612, Final residual = 0.00014183, No Iterations 2
time step continuity errors : sum local = 5.98427e-07, global = 1.49835e-10
[adaptive_stop] t=0.000149875 normU=0.0242 maxDeltaAlpha=0.134
GAMGPCG:  Solving for p_rgh, Initial residual = 0.0081482, Final residual = 6.72231e-10, No Iterations 5
time step continuity errors : sum local = 2.82625e-12, global = 1.14849e-16, cumulative = -1.6368e-12
ExecutionTime = 367.838 s  ClockTime = 371 s

Courant Number mean: 0.00418413 max: 0.988329
Interface Courant Number mean: 0.000502806 max: 0.46595
deltaT = 2.53748e-06
Time = 0.000164537s

MULES: Solving for alpha.water
MULES: Solving for alpha.water
Phase-1 volume fraction = 0.500033  Min(alpha.water) = -2.7513e-11  Max(alpha.water) = 1
MULES: Solving for alpha.water
MULES: Solving for alpha.water
Phase-1 volume fraction = 0.500033  Min(alpha.water) = -2.62453e-11  Max(alpha.water) = 1
GAMG:  Solving for p_rgh, Initial residual = 0.0250691, Final residual = 0.000144668, No Iterations 2
time step continuity errors : sum local = 5.88649e-07, global = 4.81417e-10
GAMGPCG:  Solving for p_rgh, Initial residual = 0.00852147, Final residual = 6.3323e-10, No Iterations 5
time step continuity errors : sum local = 2.55864e-12, global = 2.67684e-15, cumulative = -1.63412e-12
ExecutionTime = 382.409 s  ClockTime = 385 s

Courant Number mean: 0.00420273 max: 0.984285
Interface Courant Number mean: 0.000505864 max: 0.474685
deltaT = 2.57799e-06
Time = 0.000167115s

MULES: Solving for alpha.water
MULES: Solving for alpha.water
Phase-1 volume fraction = 0.500033  Min(alpha.water) = -2.49263e-11  Max(alpha.water) = 1
MULES: Solving for alpha.water
MULES: Solving for alpha.water
Phase-1 volume fraction = 0.500033  Min(alpha.water) = -2.36736e-11  Max(alpha.water) = 1
GAMG:  Solving for p_rgh, Initial residual = 0.0278892, Final residual = 0.000165691, No Iterations 2
time step continuity errors : sum local = 6.36176e-07, global = 4.82566e-10
[adaptive_stop] t=0.000161999 normU=0.0232 maxDeltaAlpha=0.11
GAMGPCG:  Solving for p_rgh, Initial residual = 0.00927072, Final residual = 6.87438e-10, No Iterations 5
time step continuity errors : sum local = 2.61852e-12, global = 1.54532e-15, cumulative = -1.63258e-12
ExecutionTime = 396.959 s  ClockTime = 400 s

Courant Number mean: 0.0042435 max: 0.980861
Interface Courant Number mean: 0.000509713 max: 0.564163
deltaT = 2.28477e-06
Time = 0.0001694s

MULES: Solving for alpha.water
MULES: Solving for alpha.water
Phase-1 volume fraction = 0.500033  Min(alpha.water) = -2.25452e-11  Max(alpha.water) = 1
MULES: Solving for alpha.water
MULES: Solving for alpha.water
Phase-1 volume fraction = 0.500033  Min(alpha.water) = -2.14707e-11  Max(alpha.water) = 1
GAMG:  Solving for p_rgh, Initial residual = 0.02742, Final residual = 0.000170898, No Iterations 2
time step continuity errors : sum local = 4.86157e-07, global = 2.44433e-12
GAMGPCG:  Solving for p_rgh, Initial residual = 0.0090258, Final residual = 9.02475e-10, No Iterations 5
time step continuity errors : sum local = 2.5781e-12, global = -1.9004e-15, cumulative = -1.63448e-12
ExecutionTime = 411.292 s  ClockTime = 414 s

Courant Number mean: 0.00374334 max: 0.863331
Interface Courant Number mean: 0.000448579 max: 0.465236
deltaT = 2.45548e-06
Time = 0.000171855s

MULES: Solving for alpha.water
MULES: Solving for alpha.water
Phase-1 volume fraction = 0.500033  Min(alpha.water) = -2.03253e-11  Max(alpha.water) = 1
MULES: Solving for alpha.water
MULES: Solving for alpha.water
Phase-1 volume fraction = 0.500033  Min(alpha.water) = -1.92411e-11  Max(alpha.water) = 1
GAMG:  Solving for p_rgh, Initial residual = 0.0269173, Final residual = 0.000149819, No Iterations 2
time step continuity errors : sum local = 4.8699e-07, global = 4.89009e-10
GAMGPCG:  Solving for p_rgh, Initial residual = 0.00924032, Final residual = 7.74956e-10, No Iterations 5
time step continuity errors : sum local = 2.46504e-12, global = -4.36325e-16, cumulative = -1.63491e-12
ExecutionTime = 425.737 s  ClockTime = 429 s

Courant Number mean: 0.0040058 max: 0.941301
Interface Courant Number mean: 0.000478185 max: 0.474255
deltaT = 2.58876e-06
Time = 0.000174444s

[adaptive_stop] t=0.000161999 normU=0.0232 maxDeltaAlpha=0.11
MULES: Solving for alpha.water
MULES: Solving for alpha.water
Phase-1 volume fraction = 0.500033  Min(alpha.water) = -1.81186e-11  Max(alpha.water) = 1
MULES: Solving for alpha.water
MULES: Solving for alpha.water
Phase-1 volume fraction = 0.500033  Min(alpha.water) = -1.70616e-11  Max(alpha.water) = 1
GAMG:  Solving for p_rgh, Initial residual = 0.0328077, Final residual = 0.000204625, No Iterations 2
time step continuity errors : sum local = 6.12061e-07, global = 4.13692e-11
GAMGPCG:  Solving for p_rgh, Initial residual = 0.0109062, Final residual = 1.09836e-09, No Iterations 5
time step continuity errors : sum local = 3.2497e-12, global = -2.21381e-15, cumulative = -1.63713e-12
ExecutionTime = 440.228 s  ClockTime = 444 s

Courant Number mean: 0.00420598 max: 0.915303
Interface Courant Number mean: 0.000499197 max: 0.483473
deltaT = 2.67723e-06
Time = 0.000177121s

MULES: Solving for alpha.water
MULES: Solving for alpha.water
Phase-1 volume fraction = 0.500033  Min(alpha.water) = -1.59978e-11  Max(alpha.water) = 1
MULES: Solving for alpha.water
MULES: Solving for alpha.water
Phase-1 volume fraction = 0.500033  Min(alpha.water) = -1.50285e-11  Max(alpha.water) = 1
GAMG:  Solving for p_rgh, Initial residual = 0.0357163, Final residual = 0.000219374, No Iterations 2
time step continuity errors : sum local = 6.27409e-07, global = 6.192e-10
GAMGPCG:  Solving for p_rgh, Initial residual = 0.0117931, Final residual = 1.19925e-09, No Iterations 5
time step continuity errors : sum local = 3.39803e-12, global = -1.55599e-15, cumulative = -1.63868e-12
ExecutionTime = 454.747 s  ClockTime = 458 s

Courant Number mean: 0.00433544 max: 0.919699
Interface Courant Number mean: 0.000514398 max: 0.49688
deltaT = 2.69403e-06
Time = 0.000179815s

[adaptive_stop] t=0.000174444 normU=0.0392 maxDeltaAlpha=0.0798
MULES: Solving for alpha.water
MULES: Solving for alpha.water
Phase-1 volume fraction = 0.500033  Min(alpha.water) = -1.49507e-11  Max(alpha.water) = 1
MULES: Solving for alpha.water
MULES: Solving for alpha.water
Phase-1 volume fraction = 0.500033  Min(alpha.water) = -1.48175e-11  Max(alpha.water) = 1
GAMG:  Solving for p_rgh, Initial residual = 0.038518, Final residual = 0.000244015, No Iterations 2
time step continuity errors : sum local = 6.59255e-07, global = 6.28491e-10
GAMGPCG:  Solving for p_rgh, Initial residual = 0.0123556, Final residual = 1.40751e-09, No Iterations 5
time step continuity errors : sum local = 3.82212e-12, global = -3.85599e-16, cumulative = -1.63907e-12
ExecutionTime = 469.581 s  ClockTime = 473 s

Courant Number mean: 0.0043512 max: 0.926598
Interface Courant Number mean: 0.000515702 max: 0.496095
deltaT = 2.71523e-06
Time = 0.00018253s

MULES: Solving for alpha.water
MULES: Solving for alpha.water
Phase-1 volume fraction = 0.500033  Min(alpha.water) = -1.46264e-11  Max(alpha.water) = 1
MULES: Solving for alpha.water
MULES: Solving for alpha.water
Phase-1 volume fraction = 0.500033  Min(alpha.water) = -1.43914e-11  Max(alpha.water) = 1
GAMG:  Solving for p_rgh, Initial residual = 0.0370388, Final residual = 0.000232356, No Iterations 2
time step continuity errors : sum local = 6.50947e-07, global = 1.68138e-10
GAMGPCG:  Solving for p_rgh, Initial residual = 0.0122465, Final residual = 1.11061e-09, No Iterations 5
time step continuity errors : sum local = 3.12677e-12, global = -7.08706e-16, cumulative = -1.63978e-12
ExecutionTime = 484.202 s  ClockTime = 488 s

Courant Number mean: 0.00437647 max: 0.9245
Interface Courant Number mean: 0.000518863 max: 0.495738
deltaT = 2.73857e-06
Time = 0.000185269s

[adaptive_stop] t=0.000174444 normU=0.0392 maxDeltaAlpha=0.0798
MULES: Solving for alpha.water
MULES: Solving for alpha.water
Phase-1 volume fraction = 0.500033  Min(alpha.water) = -1.41075e-11  Max(alpha.water) = 1
MULES: Solving for alpha.water
MULES: Solving for alpha.water
Phase-1 volume fraction = 0.500033  Min(alpha.water) = -1.37909e-11  Max(alpha.water) = 1
GAMG:  Solving for p_rgh, Initial residual = 0.035783, Final residual = 0.000221549, No Iterations 2
time step continuity errors : sum local = 6.45359e-07, global = 4.69212e-10
GAMGPCG:  Solving for p_rgh, Initial residual = 0.0116364, Final residual = 1.39985e-09, No Iterations 5
time step continuity errors : sum local = 4.09123e-12, global = -3.44958e-15, cumulative = -1.64323e-12
ExecutionTime = 498.795 s  ClockTime = 502 s

Courant Number mean: 0.00440721 max: 0.914818
Interface Courant Number mean: 0.000525077 max: 0.601096
deltaT = 2.27796e-06
Time = 0.000187547s

MULES: Solving for alpha.water
MULES: Solving for alpha.water
Phase-1 volume fraction = 0.500033  Min(alpha.water) = -1.28855e-11  Max(alpha.water) = 1
MULES: Solving for alpha.water
MULES: Solving for alpha.water
Phase-1 volume fraction = 0.500033  Min(alpha.water) = -1.20808e-11  Max(alpha.water) = 1
GAMG:  Solving for p_rgh, Initial residual = 0.0337823, Final residual = 0.000191578, No Iterations 2
time step continuity errors : sum local = 4.10599e-07, global = 7.37232e-11
GAMGPCG:  Solving for p_rgh, Initial residual = 0.010808, Final residual = 7.78008e-10, No Iterations 5
time step continuity errors : sum local = 1.64669e-12, global = -2.36935e-15, cumulative = -1.6456e-12
ExecutionTime = 513.427 s  ClockTime = 517 s

Courant Number mean: 0.00366021 max: 0.743895
Interface Courant Number mean: 0.00043631 max: 0.487792
deltaT = 2.33496e-06
Time = 0.000189882s

[adaptive_stop] t=0.000187547 normU=0.0376 maxDeltaAlpha=0.0532
MULES: Solving for alpha.water
MULES: Solving for alpha.water
Phase-1 volume fraction = 0.500033  Min(alpha.water) = -1.12943e-11  Max(alpha.water) = 1
MULES: Solving for alpha.water
MULES: Solving for alpha.water
Phase-1 volume fraction = 0.500033  Min(alpha.water) = -1.05589e-11  Max(alpha.water) = 1
GAMG:  Solving for p_rgh, Initial residual = 0.0330461, Final residual = 0.000178011, No Iterations 2
time step continuity errors : sum local = 3.54605e-07, global = 6.63208e-10
GAMGPCG:  Solving for p_rgh, Initial residual = 0.0109989, Final residual = 1.1282e-09, No Iterations 5
time step continuity errors : sum local = 2.24147e-12, global = -3.89834e-15, cumulative = -1.64949e-12
ExecutionTime = 527.978 s  ClockTime = 532 s

Courant Number mean: 0.00374713 max: 0.74158
Interface Courant Number mean: 0.000445471 max: 0.489315
deltaT = 2.38594e-06
Time = 0.000192268s

MULES: Solving for alpha.water
MULES: Solving for alpha.water
Phase-1 volume fraction = 0.500033  Min(alpha.water) = -9.84536e-12  Max(alpha.water) = 1
MULES: Solving for alpha.water
MULES: Solving for alpha.water
Phase-1 volume fraction = 0.500033  Min(alpha.water) = -9.18e-12  Max(alpha.water) = 1
GAMG:  Solving for p_rgh, Initial residual = 0.0307683, Final residual = 0.000179192, No Iterations 2
time step continuity errors : sum local = 4.05305e-07, global = 2.96899e-10
GAMGPCG:  Solving for p_rgh, Initial residual = 0.00986871, Final residual = 1.321e-09, No Iterations 5
time step continuity errors : sum local = 2.98841e-12, global = -2.62454e-15, cumulative = -1.65212e-12
ExecutionTime = 542.589 s  ClockTime = 546 s

Courant Number mean: 0.00382548 max: 0.735297
Interface Courant Number mean: 0.000455724 max: 0.490776
deltaT = 2.43077e-06
Time = 0.000194699s

[adaptive_stop] t=0.000187547 normU=0.0376 maxDeltaAlpha=0.0532
MULES: Solving for alpha.water
MULES: Solving for alpha.water
Phase-1 volume fraction = 0.500033  Min(alpha.water) = -8.54197e-12  Max(alpha.water) = 1
MULES: Solving for alpha.water
MULES: Solving for alpha.water
Phase-1 volume fraction = 0.500033  Min(alpha.water) = -7.94828e-12  Max(alpha.water) = 1
GAMG:  Solving for p_rgh, Initial residual = 0.0316682, Final residual = 0.000195426, No Iterations 2
time step continuity errors : sum local = 4.57952e-07, global = 5.90821e-10
GAMGPCG:  Solving for p_rgh, Initial residual = 0.0102323, Final residual = 1.14834e-09, No Iterations 5
time step continuity errors : sum local = 2.69102e-12, global = -1.41582e-16, cumulative = -1.65226e-12
ExecutionTime = 557.156 s  ClockTime = 561 s

Courant Number mean: 0.00389303 max: 0.740771
Interface Courant Number mean: 0.000464906 max: 0.491458
deltaT = 2.473e-06
Time = 0.000197172s

MULES: Solving for alpha.water
MULES: Solving for alpha.water
Phase-1 volume fraction = 0.500033  Min(alpha.water) = -7.38475e-12  Max(alpha.water) = 1
MULES: Solving for alpha.water
MULES: Solving for alpha.water
Phase-1 volume fraction = 0.500033  Min(alpha.water) = -7.04465e-12  Max(alpha.water) = 1
GAMG:  Solving for p_rgh, Initial residual = 0.0319111, Final residual = 0.000221449, No Iterations 2
time step continuity errors : sum local = 5.30958e-07, global = 3.54256e-10
GAMGPCG:  Solving for p_rgh, Initial residual = 0.0106805, Final residual = 9.93868e-10, No Iterations 5
time step continuity errors : sum local = 2.37603e-12, global = 1.46772e-15, cumulative = -1.65079e-12
ExecutionTime = 571.847 s  ClockTime = 576 s

Courant Number mean: 0.00395458 max: 0.764398
Interface Courant Number mean: 0.000469711 max: 0.501296
deltaT = 2.4666e-06
Time = 0.000199638s

[adaptive_stop] t=0.000187547 normU=0.0376 maxDeltaAlpha=0.0532
MULES: Solving for alpha.water
MULES: Solving for alpha.water
Phase-1 volume fraction = 0.500033  Min(alpha.water) = -7.00882e-12  Max(alpha.water) = 1
MULES: Solving for alpha.water
MULES: Solving for alpha.water
Phase-1 volume fraction = 0.500033  Min(alpha.water) = -6.96048e-12  Max(alpha.water) = 1
GAMG:  Solving for p_rgh, Initial residual = 0.0316817, Final residual = 0.000193876, No Iterations 2
time step continuity errors : sum local = 4.54249e-07, global = 4.21508e-10
GAMGPCG:  Solving for p_rgh, Initial residual = 0.0104126, Final residual = 1.16342e-09, No Iterations 5
time step continuity errors : sum local = 2.71776e-12, global = 2.73769e-15, cumulative = -1.64805e-12
ExecutionTime = 586.498 s  ClockTime = 591 s

Courant Number mean: 0.00394018 max: 0.771431
Interface Courant Number mean: 0.000467968 max: 0.527158
deltaT = 2.33952e-06
Time = 0.000201978s

MULES: Solving for alpha.water
MULES: Solving for alpha.water
Phase-1 volume fraction = 0.500033  Min(alpha.water) = -6.89563e-12  Max(alpha.water) = 1
MULES: Solving for alpha.water
MULES: Solving for alpha.water
Phase-1 volume fraction = 0.500033  Min(alpha.water) = -6.82175e-12  Max(alpha.water) = 1
GAMG:  Solving for p_rgh, Initial residual = 0.0313498, Final residual = 0.000189108, No Iterations 2
time step continuity errors : sum local = 3.89802e-07, global = 1.81529e-10
GAMGPCG:  Solving for p_rgh, Initial residual = 0.0103365, Final residual = 9.35843e-10, No Iterations 5
time step continuity errors : sum local = 1.91706e-12, global = -1.95378e-15, cumulative = -1.65001e-12
ExecutionTime = 601.025 s  ClockTime = 605 s

Courant Number mean: 0.00373368 max: 0.73445
Interface Courant Number mean: 0.000443271 max: 0.524923
deltaT = 2.22843e-06
Time = 0.000204206s

MULES: Solving for alpha.water
[adaptive_stop] t=0.000199638 normU=0.0348 maxDeltaAlpha=0.0452
MULES: Solving for alpha.water
Phase-1 volume fraction = 0.500033  Min(alpha.water) = -6.73518e-12  Max(alpha.water) = 1
MULES: Solving for alpha.water
MULES: Solving for alpha.water
Phase-1 volume fraction = 0.500033  Min(alpha.water) = -6.64229e-12  Max(alpha.water) = 1
GAMG:  Solving for p_rgh, Initial residual = 0.0321716, Final residual = 0.000192838, No Iterations 2
time step continuity errors : sum local = 3.39882e-07, global = 1.16195e-10
GAMGPCG:  Solving for p_rgh, Initial residual = 0.0104117, Final residual = 1.03942e-09, No Iterations 5
time step continuity errors : sum local = 1.82302e-12, global = -1.30675e-15, cumulative = -1.65132e-12
ExecutionTime = 615.704 s  ClockTime = 620 s

Courant Number mean: 0.00355177 max: 0.700262
Interface Courant Number mean: 0.000421897 max: 0.522482
deltaT = 2.13253e-06
Time = 0.000206339s

MULES: Solving for alpha.water
MULES: Solving for alpha.water
Phase-1 volume fraction = 0.500033  Min(alpha.water) = -1.26537e-08  Max(alpha.water) = 1
MULES: Solving for alpha.water
MULES: Solving for alpha.water
Phase-1 volume fraction = 0.500033  Min(alpha.water) = -1.18336e-08  Max(alpha.water) = 1
GAMG:  Solving for p_rgh, Initial residual = 0.0320581, Final residual = 0.000176782, No Iterations 2
time step continuity errors : sum local = 2.74474e-07, global = 2.21847e-10
GAMGPCG:  Solving for p_rgh, Initial residual = 0.0102848, Final residual = 9.56127e-10, No Iterations 5
time step continuity errors : sum local = 1.47904e-12, global = -9.32368e-16, cumulative = -1.65225e-12
ExecutionTime = 630.348 s  ClockTime = 635 s

Courant Number mean: 0.00339569 max: 0.669091
Interface Courant Number mean: 0.000404999 max: 0.393709
deltaT = 2.55902e-06
Time = 0.000208898s

MULES: Solving for alpha.water
MULES: Solving for alpha.water
Phase-1 volume fraction = 0.500033  Min(alpha.water) = -1.09373e-08  Max(alpha.water) = 1
MULES: Solving for alpha.water
[adaptive_stop] t=0.000199638 normU=0.0348 maxDeltaAlpha=0.0452
MULES: Solving for alpha.water
Phase-1 volume fraction = 0.500033  Min(alpha.water) = -1.01089e-08  Max(alpha.water) = 1
GAMG:  Solving for p_rgh, Initial residual = 0.0405036, Final residual = 0.000220169, No Iterations 2
time step continuity errors : sum local = 4.60833e-07, global = 5.20124e-10
GAMGPCG:  Solving for p_rgh, Initial residual = 0.0125957, Final residual = 9.81672e-10, No Iterations 5
time step continuity errors : sum local = 2.01695e-12, global = -4.5082e-16, cumulative = -1.6527e-12
ExecutionTime = 644.827 s  ClockTime = 649 s

Courant Number mean: 0.00407302 max: 0.800343
Interface Courant Number mean: 0.000486575 max: 0.46205
deltaT = 2.76918e-06
Time = 0.000211667s

MULES: Solving for alpha.water
MULES: Solving for alpha.water
Phase-1 volume fraction = 0.500033  Min(alpha.water) = -9.30389e-09  Max(alpha.water) = 1
MULES: Solving for alpha.water
MULES: Solving for alpha.water
Phase-1 volume fraction = 0.500033  Min(alpha.water) = -8.563e-09  Max(alpha.water) = 1
GAMG:  Solving for p_rgh, Initial residual = 0.0377713, Final residual = 0.000200562, No Iterations 2
time step continuity errors : sum local = 5.06434e-07, global = 3.86814e-10
GAMGPCG:  Solving for p_rgh, Initial residual = 0.0120313, Final residual = 9.45545e-10, No Iterations 5
time step continuity errors : sum local = 2.37067e-12, global = -1.03118e-15, cumulative = -1.65373e-12
ExecutionTime = 659.56 s  ClockTime = 664 s

Courant Number mean: 0.00440476 max: 0.858902
Interface Courant Number mean: 0.000528767 max: 0.486931
deltaT = 2.84348e-06
Time = 0.00021451s

MULES: Solving for alpha.water
MULES: Solving for alpha.water
Phase-1 volume fraction = 0.500033  Min(alpha.water) = -2.29006e-08  Max(alpha.water) = 1
MULES: Solving for alpha.water
MULES: Solving for alpha.water
Phase-1 volume fraction = 0.500033  Min(alpha.water) = -2.23898e-08  Max(alpha.water) = 1
[adaptive_stop] t=0.000211667 normU=0.0327 maxDeltaAlpha=0.0482
GAMG:  Solving for p_rgh, Initial residual = 0.0414838, Final residual = 0.000239218, No Iterations 2
time step continuity errors : sum local = 5.92625e-07, global = 3.45159e-10
GAMGPCG:  Solving for p_rgh, Initial residual = 0.0137665, Final residual = 1.15451e-09, No Iterations 5
time step continuity errors : sum local = 2.83929e-12, global = -2.49979e-15, cumulative = -1.65623e-12
ExecutionTime = 674.135 s  ClockTime = 679 s

Courant Number mean: 0.00451897 max: 0.871901
Interface Courant Number mean: 0.000541783 max: 0.484598
deltaT = 2.93382e-06
Time = 0.000217444s

MULES: Solving for alpha.water
MULES: Solving for alpha.water
Phase-1 volume fraction = 0.500033  Min(alpha.water) = -2.21959e-08  Max(alpha.water) = 1
MULES: Solving for alpha.water
MULES: Solving for alpha.water
Phase-1 volume fraction = 0.500033  Min(alpha.water) = -2.20037e-08  Max(alpha.water) = 1
GAMG:  Solving for p_rgh, Initial residual = 0.042889, Final residual = 0.000245672, No Iterations 2
time step continuity errors : sum local = 6.42402e-07, global = 4.3442e-10
GAMGPCG:  Solving for p_rgh, Initial residual = 0.014022, Final residual = 1.10728e-09, No Iterations 5
time step continuity errors : sum local = 2.88822e-12, global = -4.29099e-16, cumulative = -1.65666e-12
ExecutionTime = 688.73 s  ClockTime = 694 s

Courant Number mean: 0.00465873 max: 0.888317
Interface Courant Number mean: 0.000558394 max: 0.498989
deltaT = 2.93976e-06
Time = 0.000220384s

MULES: Solving for alpha.water
MULES: Solving for alpha.water
Phase-1 volume fraction = 0.500033  Min(alpha.water) = -5.74763e-09  Max(alpha.water) = 1
MULES: Solving for alpha.water
MULES: Solving for alpha.water
Phase-1 volume fraction = 0.500033  Min(alpha.water) = -5.32707e-09  Max(alpha.water) = 1
[adaptive_stop] t=0.000211667 normU=0.0327 maxDeltaAlpha=0.0482
GAMG:  Solving for p_rgh, Initial residual = 0.0423475, Final residual = 0.000297097, No Iterations 2
time step continuity errors : sum local = 8.16358e-07, global = 8.51523e-11
GAMGPCG:  Solving for p_rgh, Initial residual = 0.0138745, Final residual = 1.00006e-09, No Iterations 5
time step continuity errors : sum local = 2.74755e-12, global = 2.22791e-15, cumulative = -1.65443e-12
ExecutionTime = 703.24 s  ClockTime = 708 s

Courant Number mean: 0.00466433 max: 0.881249
Interface Courant Number mean: 0.000560377 max: 0.515099
deltaT = 2.85358e-06
Time = 0.000223238s

MULES: Solving for alpha.water
MULES: Solving for alpha.water
Phase-1 volume fraction = 0.500033  Min(alpha.water) = -4.96365e-09  Max(alpha.water) = 1
MULES: Solving for alpha.water
MULES: Solving for alpha.water
Phase-1 volume fraction = 0.500033  Min(alpha.water) = -4.62503e-09  Max(alpha.water) = 1
GAMG:  Solving for p_rgh, Initial residual = 0.0386155, Final residual = 0.000237166, No Iterations 2
time step continuity errors : sum local = 6.52224e-07, global = 3.55294e-10
GAMGPCG:  Solving for p_rgh, Initial residual = 0.0123619, Final residual = 1.06975e-09, No Iterations 5
time step continuity errors : sum local = 2.94084e-12, global = 1.8788e-15, cumulative = -1.65255e-12
ExecutionTime = 717.864 s  ClockTime = 723 s

Courant Number mean: 0.00452508 max: 0.848865
Interface Courant Number mean: 0.000543503 max: 0.514052
deltaT = 2.77557e-06
Time = 0.000226013s

MULES: Solving for alpha.water
MULES: Solving for alpha.water
Phase-1 volume fraction = 0.500033  Min(alpha.water) = -4.32731e-09  Max(alpha.water) = 1
MULES: Solving for alpha.water
MULES: Solving for alpha.water
Phase-1 volume fraction = 0.500033  Min(alpha.water) = -4.04875e-09  Max(alpha.water) = 1
GAMG:  Solving for p_rgh, Initial residual = 0.0352733, Final residual = 0.000203372, No Iterations 2
[adaptive_stop] t=0.000211667 normU=0.0327 maxDeltaAlpha=0.0482
time step continuity errors : sum local = 5.56901e-07, global = 4.695e-10
GAMGPCG:  Solving for p_rgh, Initial residual = 0.0114514, Final residual = 1.26726e-09, No Iterations 5
time step continuity errors : sum local = 3.45886e-12, global = 3.64397e-15, cumulative = -1.64891e-12
ExecutionTime = 732.409 s  ClockTime = 738 s

Courant Number mean: 0.00439896 max: 0.820853
Interface Courant Number mean: 0.000529243 max: 0.510732
deltaT = 2.71724e-06
Time = 0.00022873s

MULES: Solving for alpha.water
MULES: Solving for alpha.water
Phase-1 volume fraction = 0.500033  Min(alpha.water) = -3.79922e-09  Max(alpha.water) = 1
MULES: Solving for alpha.water
MULES: Solving for alpha.water
Phase-1 volume fraction = 0.500033  Min(alpha.water) = -3.56507e-09  Max(alpha.water) = 1
GAMG:  Solving for p_rgh, Initial residual = 0.0339682, Final residual = 0.000196564, No Iterations 2
time step continuity errors : sum local = 5.31018e-07, global = 3.49148e-10
GAMGPCG:  Solving for p_rgh, Initial residual = 0.0108133, Final residual = 1.05791e-09, No Iterations 5
time step continuity errors : sum local = 2.84291e-12, global = 6.59635e-15, cumulative = -1.64231e-12
ExecutionTime = 747.046 s  ClockTime = 752 s

Courant Number mean: 0.00430264 max: 0.802193
Interface Courant Number mean: 0.000516226 max: 0.508115
deltaT = 2.67384e-06
Time = 0.000231404s

MULES: Solving for alpha.water
MULES: Solving for alpha.water
Phase-1 volume fraction = 0.500033  Min(alpha.water) = -3.35331e-09  Max(alpha.water) = 1
MULES: Solving for alpha.water
MULES: Solving for alpha.water
Phase-1 volume fraction = 0.500033  Min(alpha.water) = -3.15412e-09  Max(alpha.water) = 1
GAMG:  Solving for p_rgh, Initial residual = 0.0319766, Final residual = 0.000177743, No Iterations 2
time step continuity errors : sum local = 4.725e-07, global = 3.48657e-10
[adaptive_stop] t=0.000226013 normU=0.0286 maxDeltaAlpha=0.0634
GAMGPCG:  Solving for p_rgh, Initial residual = 0.0102371, Final residual = 8.86496e-10, No Iterations 5
time step continuity errors : sum local = 2.34365e-12, global = 4.76682e-15, cumulative = -1.63754e-12
ExecutionTime = 761.6 s  ClockTime = 767 s

Courant Number mean: 0.00422951 max: 0.783631
Interface Courant Number mean: 0.000505818 max: 0.50651
deltaT = 2.63945e-06
Time = 0.000234044s

MULES: Solving for alpha.water
MULES: Solving for alpha.water
Phase-1 volume fraction = 0.500033  Min(alpha.water) = -2.9731e-09  Max(alpha.water) = 1
MULES: Solving for alpha.water
MULES: Solving for alpha.water
Phase-1 volume fraction = 0.500033  Min(alpha.water) = -2.80247e-09  Max(alpha.water) = 1
GAMG:  Solving for p_rgh, Initial residual = 0.0304585, Final residual = 0.000169162, No Iterations 2
time step continuity errors : sum local = 4.43494e-07, global = 2.33154e-10
GAMGPCG:  Solving for p_rgh, Initial residual = 0.00981565, Final residual = 8.64538e-10, No Iterations 5
time step continuity errors : sum local = 2.2565e-12, global = 7.4904e-16, cumulative = -1.6368e-12
ExecutionTime = 776.118 s  ClockTime = 782 s

Courant Number mean: 0.00417275 max: 0.787227
Interface Courant Number mean: 0.000495521 max: 0.504262
deltaT = 2.61713e-06
Time = 0.000236661s

MULES: Solving for alpha.water
MULES: Solving for alpha.water
Phase-1 volume fraction = 0.500033  Min(alpha.water) = -2.64646e-09  Max(alpha.water) = 1
MULES: Solving for alpha.water
MULES: Solving for alpha.water
Phase-1 volume fraction = 0.500033  Min(alpha.water) = -2.49914e-09  Max(alpha.water) = 1
GAMG:  Solving for p_rgh, Initial residual = 0.0310612, Final residual = 0.000182494, No Iterations 2
time step continuity errors : sum local = 4.77943e-07, global = 2.19336e-10
[adaptive_stop] t=0.000226013 normU=0.0286 maxDeltaAlpha=0.0634
GAMGPCG:  Solving for p_rgh, Initial residual = 0.00981806, Final residual = 9.41499e-10, No Iterations 5
time step continuity errors : sum local = 2.45506e-12, global = 1.34666e-15, cumulative = -1.63545e-12
ExecutionTime = 790.743 s  ClockTime = 796 s

Courant Number mean: 0.00413548 max: 0.783094
Interface Courant Number mean: 0.000490868 max: 0.503076
deltaT = 2.60111e-06
Time = 0.000239262s

MULES: Solving for alpha.water
MULES: Solving for alpha.water
Phase-1 volume fraction = 0.500033  Min(alpha.water) = -2.36384e-09  Max(alpha.water) = 1
MULES: Solving for alpha.water
MULES: Solving for alpha.water
Phase-1 volume fraction = 0.500033  Min(alpha.water) = -2.29293e-09  Max(alpha.water) = 1
GAMG:  Solving for p_rgh, Initial residual = 0.0299949, Final residual = 0.00018436, No Iterations 2
time step continuity errors : sum local = 4.81979e-07, global = 3.58703e-10
GAMGPCG:  Solving for p_rgh, Initial residual = 0.00961068, Final residual = 8.66279e-10, No Iterations 5
time step continuity errors : sum local = 2.25699e-12, global = 5.96354e-15, cumulative = -1.62949e-12
ExecutionTime = 805.427 s  ClockTime = 811 s

Courant Number mean: 0.00410717 max: 0.770015
Interface Courant Number mean: 0.000486649 max: 0.502607
deltaT = 2.5876e-06
Time = 0.00024185s

MULES: Solving for alpha.water
MULES: Solving for alpha.water
Phase-1 volume fraction = 0.500033  Min(alpha.water) = -4.30993e-09  Max(alpha.water) = 1
MULES: Solving for alpha.water
MULES: Solving for alpha.water
Phase-1 volume fraction = 0.500033  Min(alpha.water) = -3.82227e-09  Max(alpha.water) = 1
GAMG:  Solving for p_rgh, Initial residual = 0.0288254, Final residual = 0.000180824, No Iterations 2
time step continuity errors : sum local = 4.7336e-07, global = 4.37947e-10
[adaptive_stop] t=0.000239262 normU=0.026 maxDeltaAlpha=0.0643
GAMGPCG:  Solving for p_rgh, Initial residual = 0.00936764, Final residual = 7.87586e-10, No Iterations 5
time step continuity errors : sum local = 2.05457e-12, global = 2.2636e-15, cumulative = -1.62722e-12
ExecutionTime = 819.97 s  ClockTime = 826 s

Courant Number mean: 0.00408429 max: 0.750198
Interface Courant Number mean: 0.000481975 max: 0.502739
deltaT = 2.5735e-06
Time = 0.000244423s

MULES: Solving for alpha.water
MULES: Solving for alpha.water
Phase-1 volume fraction = 0.500033  Min(alpha.water) = -3.38963e-09  Max(alpha.water) = 1
MULES: Solving for alpha.water
MULES: Solving for alpha.water
Phase-1 volume fraction = 0.500033  Min(alpha.water) = -3.00596e-09  Max(alpha.water) = 1
GAMG:  Solving for p_rgh, Initial residual = 0.0282309, Final residual = 0.000157588, No Iterations 2
time step continuity errors : sum local = 4.12371e-07, global = 3.27664e-10
GAMGPCG:  Solving for p_rgh, Initial residual = 0.00887912, Final residual = 7.79684e-10, No Iterations 5
time step continuity errors : sum local = 2.03681e-12, global = 6.38026e-15, cumulative = -1.62084e-12
ExecutionTime = 834.472 s  ClockTime = 840 s

Courant Number mean: 0.00406088 max: 0.767795
Interface Courant Number mean: 0.000479088 max: 0.503049
deltaT = 2.5579e-06
Time = 0.000246981s

MULES: Solving for alpha.water
MULES: Solving for alpha.water
Phase-1 volume fraction = 0.500033  Min(alpha.water) = -2.66956e-09  Max(alpha.water) = 1
MULES: Solving for alpha.water
MULES: Solving for alpha.water
Phase-1 volume fraction = 0.500033  Min(alpha.water) = -2.37081e-09  Max(alpha.water) = 1
GAMG:  Solving for p_rgh, Initial residual = 0.0279617, Final residual = 0.000179976, No Iterations 2
time step continuity errors : sum local = 4.70091e-07, global = 3.02916e-10
[adaptive_stop] t=0.000239262 normU=0.026 maxDeltaAlpha=0.0643
GAMGPCG:  Solving for p_rgh, Initial residual = 0.00907289, Final residual = 9.07782e-10, No Iterations 5
time step continuity errors : sum local = 2.36376e-12, global = 4.87273e-15, cumulative = -1.61597e-12
ExecutionTime = 848.848 s  ClockTime = 855 s

Courant Number mean: 0.00403377 max: 0.787134
Interface Courant Number mean: 0.000474026 max: 0.503404
deltaT = 2.54059e-06
Time = 0.000249521s

MULES: Solving for alpha.water
MULES: Solving for alpha.water
Phase-1 volume fraction = 0.500033  Min(alpha.water) = -2.11179e-09  Max(alpha.water) = 1
MULES: Solving for alpha.water
MULES: Solving for alpha.water
Phase-1 volume fraction = 0.500033  Min(alpha.water) = -1.88106e-09  Max(alpha.water) = 1
GAMG:  Solving for p_rgh, Initial residual = 0.0272835, Final residual = 0.000164406, No Iterations 2
time step continuity errors : sum local = 4.25909e-07, global = 3.41785e-10
GAMGPCG:  Solving for p_rgh, Initial residual = 0.00885727, Final residual = 9.2108e-10, No Iterations 5
time step continuity errors : sum local = 2.38213e-12, global = 5.59915e-15, cumulative = -1.61037e-12
ExecutionTime = 862.992 s  ClockTime = 869 s

Courant Number mean: 0.00400341 max: 0.795358
Interface Courant Number mean: 0.000470643 max: 0.504912
deltaT = 2.51587e-06
Time = 0.000252037s

MULES: Solving for alpha.water
MULES: Solving for alpha.water
Phase-1 volume fraction = 0.500033  Min(alpha.water) = -1.6814e-09  Max(alpha.water) = 1
MULES: Solving for alpha.water
MULES: Solving for alpha.water
Phase-1 volume fraction = 0.500033  Min(alpha.water) = -1.50432e-09  Max(alpha.water) = 1
GAMG:  Solving for p_rgh, Initial residual = 0.0268275, Final residual = 0.00016705, No Iterations 2
time step continuity errors : sum local = 4.27773e-07, global = 6.0061e-10
GAMGPCG:  Solving for p_rgh, Initial residual = 0.00883599, Final residual = 1.03636e-09, No Iterations 5
time step continuity errors : sum local = 2.64495e-12, global = -3.84538e-15, cumulative = -1.61422e-12
ExecutionTime = 877.299 s  ClockTime = 883 s

Courant Number mean: 0.00396052 max: 0.793967
[adaptive_stop] t=0.000252037 normU=0.027 maxDeltaAlpha=0.0707
Interface Courant Number mean: 0.000466017 max: 0.498888
deltaT = 2.52146e-06
Time = 0.000254559s

MULES: Solving for alpha.water
MULES: Solving for alpha.water
Phase-1 volume fraction = 0.500033  Min(alpha.water) = -1.43166e-09  Max(alpha.water) = 1
MULES: Solving for alpha.water
MULES: Solving for alpha.water
Phase-1 volume fraction = 0.500033  Min(alpha.water) = -1.3625e-09  Max(alpha.water) = 1
GAMG:  Solving for p_rgh, Initial residual = 0.0259427, Final residual = 0.000167385, No Iterations 2
time step continuity errors : sum local = 4.31753e-07, global = 3.10189e-10
GAMGPCG:  Solving for p_rgh, Initial residual = 0.00838251, Final residual = 9.77672e-10, No Iterations 5
time step continuity errors : sum local = 2.51603e-12, global = 2.56836e-15, cumulative = -1.61165e-12
ExecutionTime = 891.511 s  ClockTime = 898 s

Courant Number mean: 0.00396512 max: 0.804559
Interface Courant Number mean: 0.000466811 max: 0.496996
deltaT = 2.5367e-06
Time = 0.000257096s

MULES: Solving for alpha.water
MULES: Solving for alpha.water
Phase-1 volume fraction = 0.500033  Min(alpha.water) = -1.29623e-09  Max(alpha.water) = 1
MULES: Solving for alpha.water
MULES: Solving for alpha.water
Phase-1 volume fraction = 0.500033  Min(alpha.water) = -1.23317e-09  Max(alpha.water) = 1
GAMG:  Solving for p_rgh, Initial residual = 0.025453, Final residual = 0.000154256, No Iterations 2
time step continuity errors : sum local = 4.03484e-07, global = 4.13984e-10
GAMGPCG:  Solving for p_rgh, Initial residual = 0.00820917, Final residual = 8.41563e-10, No Iterations 5
time step continuity errors : sum local = 2.19431e-12, global = 4.80508e-15, cumulative = -1.60684e-12
ExecutionTime = 905.716 s  ClockTime = 912 s

Courant Number mean: 0.00398546 max: 0.816706
Interface Courant Number mean: 0.000468599 max: 0.496124
deltaT = 2.55651e-06
Time = 0.000259652s

[adaptive_stop] t=0.000252037 normU=0.027 maxDeltaAlpha=0.0707
MULES: Solving for alpha.water
MULES: Solving for alpha.water
Phase-1 volume fraction = 0.500033  Min(alpha.water) = -1.173e-09  Max(alpha.water) = 1
MULES: Solving for alpha.water
MULES: Solving for alpha.water
Phase-1 volume fraction = 0.500033  Min(alpha.water) = -1.11576e-09  Max(alpha.water) = 1
GAMG:  Solving for p_rgh, Initial residual = 0.0251068, Final residual = 0.000159137, No Iterations 2
time step continuity errors : sum local = 4.23703e-07, global = 4.82422e-11
GAMGPCG:  Solving for p_rgh, Initial residual = 0.00793264, Final residual = 7.83722e-10, No Iterations 5
time step continuity errors : sum local = 2.08434e-12, global = -7.79163e-16, cumulative = -1.60762e-12
ExecutionTime = 919.77 s  ClockTime = 926 s

Courant Number mean: 0.00401345 max: 0.819848
Interface Courant Number mean: 0.000471447 max: 0.495213
deltaT = 2.58122e-06
Time = 0.000262233s

MULES: Solving for alpha.water
MULES: Solving for alpha.water
Phase-1 volume fraction = 0.500033  Min(alpha.water) = -1.0611e-09  Max(alpha.water) = 1
MULES: Solving for alpha.water
MULES: Solving for alpha.water
Phase-1 volume fraction = 0.500033  Min(alpha.water) = -1.00912e-09  Max(alpha.water) = 1
GAMG:  Solving for p_rgh, Initial residual = 0.0245781, Final residual = 0.000151271, No Iterations 2
time step continuity errors : sum local = 4.12359e-07, global = 4.14848e-10
GAMGPCG:  Solving for p_rgh, Initial residual = 0.00792428, Final residual = 8.25903e-10, No Iterations 5
time step continuity errors : sum local = 2.24585e-12, global = 7.40411e-15, cumulative = -1.60022e-12
ExecutionTime = 934.024 s  ClockTime = 940 s

Courant Number mean: 0.00405045 max: 0.822286
Interface Courant Number mean: 0.000475143 max: 0.494284
deltaT = 2.61106e-06
Time = 0.000264844s

[adaptive_stop] t=0.000252037 normU=0.027 maxDeltaAlpha=0.0707
MULES: Solving for alpha.water
MULES: Solving for alpha.water
Phase-1 volume fraction = 0.500033  Min(alpha.water) = -9.59384e-10  Max(alpha.water) = 1
MULES: Solving for alpha.water
MULES: Solving for alpha.water
Phase-1 volume fraction = 0.500033  Min(alpha.water) = -9.12102e-10  Max(alpha.water) = 1
GAMG:  Solving for p_rgh, Initial residual = 0.0247176, Final residual = 0.000144065, No Iterations 2
time step continuity errors : sum local = 4.00915e-07, global = 4.5921e-10
GAMGPCG:  Solving for p_rgh, Initial residual = 0.00791404, Final residual = 7.32098e-10, No Iterations 5
time step continuity errors : sum local = 2.03311e-12, global = 4.57964e-15, cumulative = -1.59564e-12
ExecutionTime = 948.11 s  ClockTime = 955 s

Courant Number mean: 0.00409567 max: 0.824243
Interface Courant Number mean: 0.000481072 max: 0.493697
deltaT = 2.64438e-06
Time = 0.000267489s

MULES: Solving for alpha.water
MULES: Solving for alpha.water
Phase-1 volume fraction = 0.500033  Min(alpha.water) = -8.66987e-10  Max(alpha.water) = 1
MULES: Solving for alpha.water
MULES: Solving for alpha.water
Phase-1 volume fraction = 0.500033  Min(alpha.water) = -8.24103e-10  Max(alpha.water) = 1
GAMG:  Solving for p_rgh, Initial residual = 0.0241775, Final residual = 0.000143385, No Iterations 2
time step continuity errors : sum local = 4.09237e-07, global = 4.11162e-10
GAMGPCG:  Solving for p_rgh, Initial residual = 0.00774966, Final residual = 7.82543e-10, No Iterations 5
time step continuity errors : sum local = 2.22942e-12, global = 1.40001e-15, cumulative = -1.59424e-12
ExecutionTime = 962.455 s  ClockTime = 969 s

Courant Number mean: 0.00414599 max: 0.825161
Interface Courant Number mean: 0.000486927 max: 0.493161
deltaT = 2.68103e-06
Time = 0.00027017s

[adaptive_stop] t=0.000264844 normU=0.0275 maxDeltaAlpha=0.0738
MULES: Solving for alpha.water
MULES: Solving for alpha.water
Phase-1 volume fraction = 0.500033  Min(alpha.water) = -7.8332e-10  Max(alpha.water) = 1
MULES: Solving for alpha.water
MULES: Solving for alpha.water
Phase-1 volume fraction = 0.500033  Min(alpha.water) = -7.44555e-10  Max(alpha.water) = 1
GAMG:  Solving for p_rgh, Initial residual = 0.0239316, Final residual = 0.000136148, No Iterations 2
time step continuity errors : sum local = 3.99988e-07, global = 2.76347e-10
GAMGPCG:  Solving for p_rgh, Initial residual = 0.00767904, Final residual = 7.85935e-10, No Iterations 5
time step continuity errors : sum local = 2.3037e-12, global = 3.38739e-15, cumulative = -1.59085e-12
ExecutionTime = 976.726 s  ClockTime = 983 s

Courant Number mean: 0.00420027 max: 0.82513
Interface Courant Number mean: 0.000491946 max: 0.456063
deltaT = 2.93931e-06
Time = 0.000273109s

MULES: Solving for alpha.water
MULES: Solving for alpha.water
Phase-1 volume fraction = 0.500033  Min(alpha.water) = -7.05234e-10  Max(alpha.water) = 1
MULES: Solving for alpha.water
MULES: Solving for alpha.water
Phase-1 volume fraction = 0.500033  Min(alpha.water) = -6.67989e-10  Max(alpha.water) = 1
GAMG:  Solving for p_rgh, Initial residual = 0.0254301, Final residual = 0.000140983, No Iterations 2
time step continuity errors : sum local = 4.89196e-07, global = 4.53116e-10
GAMGPCG:  Solving for p_rgh, Initial residual = 0.00815246, Final residual = 7.54152e-10, No Iterations 5
time step continuity errors : sum local = 2.60376e-12, global = 2.46636e-15, cumulative = -1.58838e-12
ExecutionTime = 990.903 s  ClockTime = 998 s

Courant Number mean: 0.00459981 max: 0.88733
Interface Courant Number mean: 0.000537535 max: 0.488338
deltaT = 3.00948e-06
Time = 0.000276119s

MULES: Solving for alpha.water
MULES: Solving for alpha.water
Phase-1 volume fraction = 0.500033  Min(alpha.water) = -6.32922e-10  Max(alpha.water) = 1
MULES: Solving for alpha.water
[adaptive_stop] t=0.000264844 normU=0.0275 maxDeltaAlpha=0.0738
MULES: Solving for alpha.water
Phase-1 volume fraction = 0.500033  Min(alpha.water) = -5.99696e-10  Max(alpha.water) = 1
GAMG:  Solving for p_rgh, Initial residual = 0.0272247, Final residual = 0.000159805, No Iterations 2
time step continuity errors : sum local = 5.68652e-07, global = 5.32316e-10
GAMGPCG:  Solving for p_rgh, Initial residual = 0.00870848, Final residual = 8.99053e-10, No Iterations 5
time step continuity errors : sum local = 3.19363e-12, global = 1.2338e-14, cumulative = -1.57605e-12
ExecutionTime = 1005.02 s  ClockTime = 1012 s

Courant Number mean: 0.00470287 max: 0.911606
Interface Courant Number mean: 0.000547684 max: 0.490627
deltaT = 3.06696e-06
Time = 0.000279185s

MULES: Solving for alpha.water
MULES: Solving for alpha.water
Phase-1 volume fraction = 0.500033  Min(alpha.water) = -5.71055e-10  Max(alpha.water) = 1
MULES: Solving for alpha.water
MULES: Solving for alpha.water
Phase-1 volume fraction = 0.500033  Min(alpha.water) = -5.43782e-10  Max(alpha.water) = 1
GAMG:  Solving for p_rgh, Initial residual = 0.0267452, Final residual = 0.000153964, No Iterations 2
time step continuity errors : sum local = 5.70629e-07, global = 1.09565e-10
GAMGPCG:  Solving for p_rgh, Initial residual = 0.00852874, Final residual = 8.21521e-10, No Iterations 5
time step continuity errors : sum local = 3.0395e-12, global = 2.69456e-15, cumulative = -1.57335e-12
ExecutionTime = 1019.2 s  ClockTime = 1026 s

Courant Number mean: 0.00478611 max: 0.969842
Interface Courant Number mean: 0.000552338 max: 0.506789
deltaT = 3.02586e-06
Time = 0.000282211s

MULES: Solving for alpha.water
MULES: Solving for alpha.water
Phase-1 volume fraction = 0.500033  Min(alpha.water) = -5.19971e-10  Max(alpha.water) = 1
MULES: Solving for alpha.water
MULES: Solving for alpha.water
Phase-1 volume fraction = 0.500033  Min(alpha.water) = -4.97203e-10  Max(alpha.water) = 1
[adaptive_stop] t=0.000279185 normU=0.0269 maxDeltaAlpha=0.0699
GAMG:  Solving for p_rgh, Initial residual = 0.0266005, Final residual = 0.00017436, No Iterations 2
time step continuity errors : sum local = 6.34372e-07, global = 6.03453e-11
GAMGPCG:  Solving for p_rgh, Initial residual = 0.00842241, Final residual = 8.41319e-10, No Iterations 5
time step continuity errors : sum local = 3.05838e-12, global = 1.67857e-15, cumulative = -1.57167e-12
ExecutionTime = 1033.89 s  ClockTime = 1041 s

Courant Number mean: 0.00471477 max: 0.982202
Interface Courant Number mean: 0.000544645 max: 0.492407
deltaT = 3.0725e-06
Time = 0.000285284s

MULES: Solving for alpha.water
MULES: Solving for alpha.water
Phase-1 volume fraction = 0.500033  Min(alpha.water) = -4.76477e-10  Max(alpha.water) = 1
MULES: Solving for alpha.water
MULES: Solving for alpha.water
Phase-1 volume fraction = 0.500033  Min(alpha.water) = -4.56615e-10  Max(alpha.water) = 1
GAMG:  Solving for p_rgh, Initial residual = 0.0257039, Final residual = 0.000152498, No Iterations 2
time step continuity errors : sum local = 5.74674e-07, global = 5.07604e-10
GAMGPCG:  Solving for p_rgh, Initial residual = 0.0081595, Final residual = 9.74532e-10, No Iterations 5
time step continuity errors : sum local = 3.66223e-12, global = -3.00697e-15, cumulative = -1.57468e-12
ExecutionTime = 1048.31 s  ClockTime = 1056 s

Courant Number mean: 0.00477942 max: 1.00141
Interface Courant Number mean: 0.00055047 max: 0.511191
deltaT = 3.00521e-06
Time = 0.000288289s

MULES: Solving for alpha.water
MULES: Solving for alpha.water
Phase-1 volume fraction = 0.500033  Min(alpha.water) = -4.39183e-10  Max(alpha.water) = 1
MULES: Solving for alpha.water
MULES: Solving for alpha.water
Phase-1 volume fraction = 0.500033  Min(alpha.water) = -4.22417e-10  Max(alpha.water) = 1
GAMG:  Solving for p_rgh, Initial residual = 0.0260336, Final residual = 0.000162137, No Iterations 2
[adaptive_stop] t=0.000279185 normU=0.0269 maxDeltaAlpha=0.0699
time step continuity errors : sum local = 5.84372e-07, global = 1.94071e-10
GAMGPCG:  Solving for p_rgh, Initial residual = 0.00829218, Final residual = 1.23761e-09, No Iterations 5
time step continuity errors : sum local = 4.45636e-12, global = 1.10802e-15, cumulative = -1.57357e-12
ExecutionTime = 1062.65 s  ClockTime = 1070 s

Courant Number mean: 0.00466572 max: 0.958936
Interface Courant Number mean: 0.000536622 max: 0.510184
deltaT = 2.9452e-06
Time = 0.000291234s

MULES: Solving for alpha.water
MULES: Solving for alpha.water
Phase-1 volume fraction = 0.500033  Min(alpha.water) = -4.07643e-10  Max(alpha.water) = 1
MULES: Solving for alpha.water
MULES: Solving for alpha.water
Phase-1 volume fraction = 0.500033  Min(alpha.water) = -3.93386e-10  Max(alpha.water) = 1
GAMG:  Solving for p_rgh, Initial residual = 0.0246809, Final residual = 0.000146622, No Iterations 2
time step continuity errors : sum local = 5.13336e-07, global = 3.98881e-10
GAMGPCG:  Solving for p_rgh, Initial residual = 0.0079376, Final residual = 1.19306e-09, No Iterations 5
time step continuity errors : sum local = 4.16899e-12, global = -4.02724e-15, cumulative = -1.5776e-12
ExecutionTime = 1076.88 s  ClockTime = 1084 s

Courant Number mean: 0.00456427 max: 0.91955
Interface Courant Number mean: 0.000524961 max: 0.509353
deltaT = 2.89112e-06
Time = 0.000294125s

MULES: Solving for alpha.water
MULES: Solving for alpha.water
Phase-1 volume fraction = 0.500033  Min(alpha.water) = -3.80783e-10  Max(alpha.water) = 1
MULES: Solving for alpha.water
MULES: Solving for alpha.water
Phase-1 volume fraction = 0.500033  Min(alpha.water) = -3.68583e-10  Max(alpha.water) = 1
GAMG:  Solving for p_rgh, Initial residual = 0.0233472, Final residual = 0.000131043, No Iterations 2
time step continuity errors : sum local = 4.43409e-07, global = 3.30309e-10
[adaptive_stop] t=0.000279185 normU=0.0269 maxDeltaAlpha=0.0699
GAMGPCG:  Solving for p_rgh, Initial residual = 0.00748727, Final residual = 8.64673e-10, No Iterations 5
time step continuity errors : sum local = 2.91799e-12, global = 4.29389e-16, cumulative = -1.57717e-12
ExecutionTime = 1091 s  ClockTime = 1099 s

Courant Number mean: 0.00447376 max: 0.886135
Interface Courant Number mean: 0.000513093 max: 0.508733
deltaT = 2.84147e-06
Time = 0.000296967s

MULES: Solving for alpha.water
MULES: Solving for alpha.water
Phase-1 volume fraction = 0.500033  Min(alpha.water) = -3.57716e-10  Max(alpha.water) = 1
MULES: Solving for alpha.water
MULES: Solving for alpha.water
Phase-1 volume fraction = 0.500033  Min(alpha.water) = -3.47169e-10  Max(alpha.water) = 1
GAMG:  Solving for p_rgh, Initial residual = 0.0228738, Final residual = 0.000136053, No Iterations 2
time step continuity errors : sum local = 4.47248e-07, global = 2.8086e-10
GAMGPCG:  Solving for p_rgh, Initial residual = 0.00735902, Final residual = 7.16809e-10, No Iterations 5
time step continuity errors : sum local = 2.35315e-12, global = 6.41838e-15, cumulative = -1.57075e-12
ExecutionTime = 1105.34 s  ClockTime = 1113 s

Courant Number mean: 0.00439146 max: 0.84889
Interface Courant Number mean: 0.000501997 max: 0.470329
deltaT = 3.0207e-06
Time = 0.000299988s

MULES: Solving for alpha.water
MULES: Solving for alpha.water
Phase-1 volume fraction = 0.500033  Min(alpha.water) = -3.36825e-10  Max(alpha.water) = 1
MULES: Solving for alpha.water
MULES: Solving for alpha.water
Phase-1 volume fraction = 0.500033  Min(alpha.water) = -3.26788e-10  Max(alpha.water) = 1
GAMG:  Solving for p_rgh, Initial residual = 0.023468, Final residual = 0.00014415, No Iterations 2
time step continuity errors : sum local = 5.28456e-07, global = 4.15664e-10
[adaptive_stop] t=0.000294125 normU=0.027 maxDeltaAlpha=0.048
GAMGPCG:  Solving for p_rgh, Initial residual = 0.00763361, Final residual = 7.39538e-10, No Iterations 5
time step continuity errors : sum local = 2.69653e-12, global = 4.76132e-15, cumulative = -1.56599e-12
ExecutionTime = 1119.77 s  ClockTime = 1128 s

Courant Number mean: 0.00466174 max: 0.866199
Interface Courant Number mean: 0.000532387 max: 0.562777
deltaT = 2.68373e-06
Time = 0.000302671s

MULES: Solving for alpha.water
MULES: Solving for alpha.water
Phase-1 volume fraction = 0.500033  Min(alpha.water) = -3.18781e-10  Max(alpha.water) = 1
MULES: Solving for alpha.water
MULES: Solving for alpha.water
Phase-1 volume fraction = 0.500033  Min(alpha.water) = -3.1097e-10  Max(alpha.water) = 1
GAMG:  Solving for p_rgh, Initial residual = 0.022885, Final residual = 0.000145115, No Iterations 2
time step continuity errors : sum local = 4.21658e-07, global = 3.15444e-10
GAMGPCG:  Solving for p_rgh, Initial residual = 0.00733346, Final residual = 7.27658e-10, No Iterations 5
time step continuity errors : sum local = 2.11694e-12, global = 2.47951e-15, cumulative = -1.56351e-12
ExecutionTime = 1134.06 s  ClockTime = 1142 s

Courant Number mean: 0.00413501 max: 0.731119
Interface Courant Number mean: 0.000471204 max: 0.475505
deltaT = 2.82198e-06
Time = 0.000305493s

MULES: Solving for alpha.water
MULES: Solving for alpha.water
Phase-1 volume fraction = 0.500033  Min(alpha.water) = -3.03623e-10  Max(alpha.water) = 1
MULES: Solving for alpha.water
MULES: Solving for alpha.water
Phase-1 volume fraction = 0.500033  Min(alpha.water) = -2.9645e-10  Max(alpha.water) = 1
GAMG:  Solving for p_rgh, Initial residual = 0.0215905, Final residual = 0.000129556, No Iterations 2
time step continuity errors : sum local = 4.22601e-07, global = 3.8053e-12
[adaptive_stop] t=0.000294125 normU=0.027 maxDeltaAlpha=0.048
GAMGPCG:  Solving for p_rgh, Initial residual = 0.00693219, Final residual = 6.2362e-10, No Iterations 5
time step continuity errors : sum local = 2.02191e-12, global = 2.80882e-15, cumulative = -1.5607e-12
ExecutionTime = 1148.27 s  ClockTime = 1156 s

Courant Number mean: 0.00434262 max: 0.721219
Interface Courant Number mean: 0.000496311 max: 0.478553
deltaT = 2.94844e-06
Time = 0.000308442s

MULES: Solving for alpha.water
MULES: Solving for alpha.water
Phase-1 volume fraction = 0.500033  Min(alpha.water) = -2.8978e-10  Max(alpha.water) = 1
MULES: Solving for alpha.water
MULES: Solving for alpha.water
Phase-1 volume fraction = 0.500033  Min(alpha.water) = -2.83261e-10  Max(alpha.water) = 1
GAMG:  Solving for p_rgh, Initial residual = 0.022403, Final residual = 0.000135523, No Iterations 2
time step continuity errors : sum local = 4.65173e-07, global = 1.18794e-10
GAMGPCG:  Solving for p_rgh, Initial residual = 0.00729034, Final residual = 7.05946e-10, No Iterations 5
time step continuity errors : sum local = 2.41366e-12, global = -5.94955e-17, cumulative = -1.56076e-12
ExecutionTime = 1162.44 s  ClockTime = 1171 s

Courant Number mean: 0.00453409 max: 0.699453
Interface Courant Number mean: 0.000516583 max: 0.478671
deltaT = 3.0798e-06
Time = 0.000311521s

MULES: Solving for alpha.water
MULES: Solving for alpha.water
Phase-1 volume fraction = 0.500033  Min(alpha.water) = -2.76765e-10  Max(alpha.water) = 1
MULES: Solving for alpha.water
MULES: Solving for alpha.water
Phase-1 volume fraction = 0.500033  Min(alpha.water) = -2.70419e-10  Max(alpha.water) = 1
GAMG:  Solving for p_rgh, Initial residual = 0.0239072, Final residual = 0.000137569, No Iterations 2
time step continuity errors : sum local = 5.05436e-07, global = 4.18606e-10
GAMGPCG:  Solving for p_rgh, Initial residual = 0.00768445, Final residual = 7.04633e-10, No Iterations 5
time step continuity errors : sum local = 2.57873e-12, global = 4.47172e-15, cumulative = -1.55629e-12
ExecutionTime = 1176.68 s  ClockTime = 1185 s

Courant Number mean: 0.0047316 max: 0.670228
Interface Courant Number mean: 0.000539271 max: 0.484253
deltaT = 3.17993e-06
Time = 0.000314701s

[adaptive_stop] t=0.000308442 normU=0.0277 maxDeltaAlpha=0.0915
MULES: Solving for alpha.water
MULES: Solving for alpha.water
Phase-1 volume fraction = 0.500033  Min(alpha.water) = -2.64211e-10  Max(alpha.water) = 1
MULES: Solving for alpha.water
MULES: Solving for alpha.water
Phase-1 volume fraction = 0.500033  Min(alpha.water) = -2.58146e-10  Max(alpha.water) = 1
GAMG:  Solving for p_rgh, Initial residual = 0.0246908, Final residual = 0.000142104, No Iterations 2
time step continuity errors : sum local = 5.47542e-07, global = 2.96579e-10
[...]
MULES: Solving for alpha.water
MULES: Solving for alpha.water
Phase-1 volume fraction = 0.500033  Min(alpha.water) = -8.45896e-11  Max(alpha.water) = 1
GAMG:  Solving for p_rgh, Initial residual = 0.0374909, Final residual = 0.000160535, No Iterations 2
time step continuity errors : sum local = 1.03797e-07, global = 6.33885e-13
GAMGPCG:  Solving for p_rgh, Initial residual = 0.00654352, Final residual = 6.0422e-10, No Iterations 5
time step continuity errors : sum local = 3.97079e-13, global = 1.04839e-16, cumulative = -1.41821e-12
ExecutionTime = 4110.3 s  ClockTime = 4148 s

Courant Number mean: 0.00264868 max: 0.491351
Interface Courant Number mean: 0.000216115 max: 0.491351
deltaT = 1.36575e-06
Time = 0.000855437s

MULES: Solving for alpha.water
MULES: Solving for alpha.water
Phase-1 volume fraction = 0.500033  Min(alpha.water) = -9.51434e-11  Max(alpha.water) = 1
MULES: Solving for alpha.water
MULES: Solving for alpha.water
Phase-1 volume fraction = 0.500033  Min(alpha.water) = -1.05313e-10  Max(alpha.water) = 1
GAMG:  Solving for p_rgh, Initial residual = 0.0133256, Final residual = 0.000104033, No Iterations 2
time step continuity errors : sum local = 7.26672e-08, global = -2.59361e-12
[adaptive_stop] t=0.000850133 normU=0.0425 maxDeltaAlpha=0.0353
GAMGPCG:  Solving for p_rgh, Initial residual = 0.00382628, Final residual = 3.25825e-10, No Iterations 5
time step continuity errors : sum local = 2.26242e-13, global = 8.04444e-17, cumulative = -1.41813e-12
ExecutionTime = 4125.12 s  ClockTime = 4163 s

Courant Number mean: 0.00269556 max: 0.492158
Interface Courant Number mean: 0.00021878 max: 0.492158
deltaT = 1.38751e-06
Time = 0.000856825s

MULES: Solving for alpha.water
MULES: Solving for alpha.water
Phase-1 volume fraction = 0.500033  Min(alpha.water) = -1.16307e-10  Max(alpha.water) = 1
MULES: Solving for alpha.water
MULES: Solving for alpha.water
Phase-1 volume fraction = 0.500033  Min(alpha.water) = -1.26617e-10  Max(alpha.water) = 1
GAMG:  Solving for p_rgh, Initial residual = 0.0096266, Final residual = 7.10982e-05, No Iterations 2
time step continuity errors : sum local = 5.0204e-08, global = 2.02274e-11
GAMGPCG:  Solving for p_rgh, Initial residual = 0.00277215, Final residual = 2.34295e-10, No Iterations 5
time step continuity errors : sum local = 1.65065e-13, global = -9.20214e-18, cumulative = -1.41814e-12
ExecutionTime = 4140.26 s  ClockTime = 4178 s

Courant Number mean: 0.00273947 max: 0.492833
Interface Courant Number mean: 0.000221413 max: 0.492833
deltaT = 1.40768e-06
Time = 0.000858232s

MULES: Solving for alpha.water
MULES: Solving for alpha.water
Phase-1 volume fraction = 0.500033  Min(alpha.water) = -1.37227e-10  Max(alpha.water) = 1
MULES: Solving for alpha.water
MULES: Solving for alpha.water
Phase-1 volume fraction = 0.500033  Min(alpha.water) = -1.4656e-10  Max(alpha.water) = 1
GAMG:  Solving for p_rgh, Initial residual = 0.00883538, Final residual = 5.80931e-05, No Iterations 2
time step continuity errors : sum local = 4.19223e-08, global = 2.57586e-11
[adaptive_stop] t=0.000850133 normU=0.0425 maxDeltaAlpha=0.0353
GAMGPCG:  Solving for p_rgh, Initial residual = 0.00259587, Final residual = 2.91727e-10, No Iterations 5
time step continuity errors : sum local = 2.1021e-13, global = 1.16237e-16, cumulative = -1.41802e-12
ExecutionTime = 4155.3 s  ClockTime = 4193 s

Courant Number mean: 0.00278047 max: 0.493414
Interface Courant Number mean: 0.00022414 max: 0.493414
deltaT = 1.42647e-06
Time = 0.000859659s

MULES: Solving for alpha.water
MULES: Solving for alpha.water
Phase-1 volume fraction = 0.500033  Min(alpha.water) = -1.55451e-10  Max(alpha.water) = 1
MULES: Solving for alpha.water
MULES: Solving for alpha.water
Phase-1 volume fraction = 0.500033  Min(alpha.water) = -1.62546e-10  Max(alpha.water) = 1
GAMG:  Solving for p_rgh, Initial residual = 0.00856023, Final residual = 5.65954e-05, No Iterations 2
time step continuity errors : sum local = 4.17141e-08, global = 1.65706e-11
GAMGPCG:  Solving for p_rgh, Initial residual = 0.00252138, Final residual = 2.23003e-10, No Iterations 5
time step continuity errors : sum local = 1.64163e-13, global = -2.14341e-16, cumulative = -1.41824e-12
ExecutionTime = 4170.26 s  ClockTime = 4209 s

Courant Number mean: 0.00281891 max: 0.493959
Interface Courant Number mean: 0.000226845 max: 0.493959
deltaT = 1.44392e-06
Time = 0.000861103s

MULES: Solving for alpha.water
MULES: Solving for alpha.water
Phase-1 volume fraction = 0.500033  Min(alpha.water) = -1.68537e-10  Max(alpha.water) = 1
MULES: Solving for alpha.water
MULES: Solving for alpha.water
Phase-1 volume fraction = 0.500033  Min(alpha.water) = -1.72144e-10  Max(alpha.water) = 1
GAMG:  Solving for p_rgh, Initial residual = 0.00872508, Final residual = 6.31411e-05, No Iterations 2
time step continuity errors : sum local = 4.75137e-08, global = 4.37637e-11
[adaptive_stop] t=0.000858232 normU=0.0415 maxDeltaAlpha=0.0275
GAMGPCG:  Solving for p_rgh, Initial residual = 0.00265613, Final residual = 2.96794e-10, No Iterations 5
time step continuity errors : sum local = 2.23098e-13, global = -1.71832e-16, cumulative = -1.41841e-12
ExecutionTime = 4185.02 s  ClockTime = 4223 s

Courant Number mean: 0.00285466 max: 0.494745
Interface Courant Number mean: 0.00022886 max: 0.494745
deltaT = 1.45925e-06
Time = 0.000862562s

MULES: Solving for alpha.water
MULES: Solving for alpha.water
Phase-1 volume fraction = 0.500033  Min(alpha.water) = -1.73798e-10  Max(alpha.water) = 1
MULES: Solving for alpha.water
MULES: Solving for alpha.water
Phase-1 volume fraction = 0.500033  Min(alpha.water) = -1.71792e-10  Max(alpha.water) = 1
GAMG:  Solving for p_rgh, Initial residual = 0.00917712, Final residual = 8.28948e-05, No Iterations 2
time step continuity errors : sum local = 6.35807e-08, global = -3.44728e-11
GAMGPCG:  Solving for p_rgh, Initial residual = 0.0028578, Final residual = 2.92967e-10, No Iterations 5
time step continuity errors : sum local = 2.24614e-13, global = 2.15091e-16, cumulative = -1.41819e-12
ExecutionTime = 4199.69 s  ClockTime = 4238 s

Courant Number mean: 0.00288598 max: 0.495626
Interface Courant Number mean: 0.000230447 max: 0.495626
deltaT = 1.47212e-06
Time = 0.000864034s

MULES: Solving for alpha.water
MULES: Solving for alpha.water
Phase-1 volume fraction = 0.500033  Min(alpha.water) = -1.69796e-10  Max(alpha.water) = 1
MULES: Solving for alpha.water
MULES: Solving for alpha.water
Phase-1 volume fraction = 0.500033  Min(alpha.water) = -1.67823e-10  Max(alpha.water) = 1
GAMG:  Solving for p_rgh, Initial residual = 0.0095523, Final residual = 8.88143e-05, No Iterations 2
time step continuity errors : sum local = 6.91561e-08, global = 2.63832e-11
[adaptive_stop] t=0.000858232 normU=0.0415 maxDeltaAlpha=0.0275
GAMGPCG:  Solving for p_rgh, Initial residual = 0.00297585, Final residual = 3.50363e-10, No Iterations 5
time step continuity errors : sum local = 2.72789e-13, global = 2.114e-18, cumulative = -1.41819e-12
ExecutionTime = 4214.83 s  ClockTime = 4254 s

Courant Number mean: 0.00291306 max: 0.496809
Interface Courant Number mean: 0.000232603 max: 0.496809
deltaT = 1.48158e-06
Time = 0.000865516s

MULES: Solving for alpha.water
MULES: Solving for alpha.water
Phase-1 volume fraction = 0.500033  Min(alpha.water) = -1.65867e-10  Max(alpha.water) = 1
MULES: Solving for alpha.water
MULES: Solving for alpha.water
Phase-1 volume fraction = 0.500033  Min(alpha.water) = -1.63933e-10  Max(alpha.water) = 1
GAMG:  Solving for p_rgh, Initial residual = 0.00862329, Final residual = 6.29162e-05, No Iterations 2
time step continuity errors : sum local = 4.95601e-08, global = 3.59125e-12
GAMGPCG:  Solving for p_rgh, Initial residual = 0.00260103, Final residual = 2.9364e-10, No Iterations 5
time step continuity errors : sum local = 2.31106e-13, global = -1.27735e-16, cumulative = -1.41832e-12
ExecutionTime = 4229.82 s  ClockTime = 4269 s

Courant Number mean: 0.00293347 max: 0.498152
Interface Courant Number mean: 0.000233915 max: 0.498152
deltaT = 1.48707e-06
Time = 0.000867003s

MULES: Solving for alpha.water
MULES: Solving for alpha.water
Phase-1 volume fraction = 0.500033  Min(alpha.water) = -1.62024e-10  Max(alpha.water) = 1
MULES: Solving for alpha.water
MULES: Solving for alpha.water
Phase-1 volume fraction = 0.500033  Min(alpha.water) = -1.60137e-10  Max(alpha.water) = 1
GAMG:  Solving for p_rgh, Initial residual = 0.00895948, Final residual = 6.43018e-05, No Iterations 2
time step continuity errors : sum local = 5.10052e-08, global = 9.31201e-12
[adaptive_stop] t=0.000865516 normU=0.0405 maxDeltaAlpha=0.0244
GAMGPCG:  Solving for p_rgh, Initial residual = 0.00279465, Final residual = 3.03148e-10, No Iterations 5
time step continuity errors : sum local = 2.4045e-13, global = 7.65925e-17, cumulative = -1.41824e-12
ExecutionTime = 4244.66 s  ClockTime = 4284 s

Courant Number mean: 0.00294592 max: 0.49863
Interface Courant Number mean: 0.00023437 max: 0.49863
deltaT = 1.49115e-06
Time = 0.000868494s

MULES: Solving for alpha.water
MULES: Solving for alpha.water
Phase-1 volume fraction = 0.500033  Min(alpha.water) = -1.58276e-10  Max(alpha.water) = 1
MULES: Solving for alpha.water
MULES: Solving for alpha.water
Phase-1 volume fraction = 0.500033  Min(alpha.water) = -1.56437e-10  Max(alpha.water) = 1
GAMG:  Solving for p_rgh, Initial residual = 0.00856822, Final residual = 6.5886e-05, No Iterations 2
time step continuity errors : sum local = 5.25372e-08, global = 1.63174e-12
GAMGPCG:  Solving for p_rgh, Initial residual = 0.00268194, Final residual = 2.61871e-10, No Iterations 5
time step continuity errors : sum local = 2.08732e-13, global = 1.72707e-17, cumulative = -1.41822e-12
ExecutionTime = 4259.79 s  ClockTime = 4299 s

Courant Number mean: 0.00295571 max: 0.498395
Interface Courant Number mean: 0.000235115 max: 0.498395
deltaT = 1.49595e-06
Time = 0.00086999s

MULES: Solving for alpha.water
MULES: Solving for alpha.water
Phase-1 volume fraction = 0.500033  Min(alpha.water) = -1.54624e-10  Max(alpha.water) = 1
MULES: Solving for alpha.water
MULES: Solving for alpha.water
Phase-1 volume fraction = 0.500033  Min(alpha.water) = -1.52831e-10  Max(alpha.water) = 1
GAMG:  Solving for p_rgh, Initial residual = 0.00853203, Final residual = 5.72762e-05, No Iterations 2
time step continuity errors : sum local = 4.59655e-08, global = 1.98672e-11
[adaptive_stop] t=0.000865516 normU=0.0405 maxDeltaAlpha=0.0244
GAMGPCG:  Solving for p_rgh, Initial residual = 0.00257845, Final residual = 2.37229e-10, No Iterations 5
time step continuity errors : sum local = 1.90355e-13, global = -7.72152e-17, cumulative = -1.4183e-12
ExecutionTime = 4274.69 s  ClockTime = 4314 s

Courant Number mean: 0.00296719 max: 0.497942
Interface Courant Number mean: 0.000235831 max: 0.497942
deltaT = 1.50213e-06
Time = 0.000871492s

MULES: Solving for alpha.water
MULES: Solving for alpha.water
Phase-1 volume fraction = 0.500033  Min(alpha.water) = -1.51065e-10  Max(alpha.water) = 1
MULES: Solving for alpha.water
MULES: Solving for alpha.water
Phase-1 volume fraction = 0.500033  Min(alpha.water) = -1.49318e-10  Max(alpha.water) = 1
GAMG:  Solving for p_rgh, Initial residual = 0.00900022, Final residual = 6.81889e-05, No Iterations 2
time step continuity errors : sum local = 5.52076e-08, global = 4.0507e-11
GAMGPCG:  Solving for p_rgh, Initial residual = 0.00288653, Final residual = 2.48787e-10, No Iterations 5
time step continuity errors : sum local = 2.01421e-13, global = -1.25388e-16, cumulative = -1.41843e-12
ExecutionTime = 4289.73 s  ClockTime = 4330 s

Courant Number mean: 0.00298198 max: 0.497335
Interface Courant Number mean: 0.000236827 max: 0.497335
deltaT = 1.51017e-06
Time = 0.000873002s

MULES: Solving for alpha.water
MULES: Solving for alpha.water
Phase-1 volume fraction = 0.500033  Min(alpha.water) = -1.47596e-10  Max(alpha.water) = 1
MULES: Solving for alpha.water
MULES: Solving for alpha.water
Phase-1 volume fraction = 0.500033  Min(alpha.water) = -1.45894e-10  Max(alpha.water) = 1
GAMG:  Solving for p_rgh, Initial residual = 0.00886884, Final residual = 6.37996e-05, No Iterations 2
time step continuity errors : sum local = 5.22408e-08, global = 1.40275e-11
[adaptive_stop] t=0.000865516 normU=0.0405 maxDeltaAlpha=0.0244
GAMGPCG:  Solving for p_rgh, Initial residual = 0.00271526, Final residual = 2.56093e-10, No Iterations 5
time step continuity errors : sum local = 2.09663e-13, global = -3.325e-16, cumulative = -1.41876e-12
ExecutionTime = 4304.71 s  ClockTime = 4345 s

Courant Number mean: 0.00300062 max: 0.496685
Interface Courant Number mean: 0.000238348 max: 0.496685
deltaT = 1.52024e-06
Time = 0.000874522s

MULES: Solving for alpha.water
MULES: Solving for alpha.water
Phase-1 volume fraction = 0.500033  Min(alpha.water) = -1.44216e-10  Max(alpha.water) = 1
MULES: Solving for alpha.water
MULES: Solving for alpha.water
Phase-1 volume fraction = 0.500033  Min(alpha.water) = -1.42556e-10  Max(alpha.water) = 1
GAMG:  Solving for p_rgh, Initial residual = 0.00861165, Final residual = 6.39787e-05, No Iterations 2
time step continuity errors : sum local = 5.30509e-08, global = 7.23717e-12
GAMGPCG:  Solving for p_rgh, Initial residual = 0.00272747, Final residual = 2.65971e-10, No Iterations 5
time step continuity errors : sum local = 2.2047e-13, global = -3.614e-16, cumulative = -1.41912e-12
ExecutionTime = 4319.55 s  ClockTime = 4360 s

Courant Number mean: 0.00302324 max: 0.496047
Interface Courant Number mean: 0.000239419 max: 0.496047
deltaT = 1.53235e-06
Time = 0.000876055s

MULES: Solving for alpha.water
MULES: Solving for alpha.water
Phase-1 volume fraction = 0.500033  Min(alpha.water) = -1.40919e-10  Max(alpha.water) = 1
MULES: Solving for alpha.water
MULES: Solving for alpha.water
Phase-1 volume fraction = 0.500033  Min(alpha.water) = -1.393e-10  Max(alpha.water) = 1
GAMG:  Solving for p_rgh, Initial residual = 0.00833162, Final residual = 5.60386e-05, No Iterations 2
time step continuity errors : sum local = 4.71762e-08, global = 2.57599e-11
[adaptive_stop] t=0.000873002 normU=0.0395 maxDeltaAlpha=0.0237
GAMGPCG:  Solving for p_rgh, Initial residual = 0.00258623, Final residual = 2.74346e-10, No Iterations 5
time step continuity errors : sum local = 2.30895e-13, global = 4.47207e-17, cumulative = -1.41908e-12
ExecutionTime = 4334.3 s  ClockTime = 4375 s

Courant Number mean: 0.00304989 max: 0.495474
Interface Courant Number mean: 0.000240845 max: 0.495474
deltaT = 1.54635e-06
Time = 0.000877601s

MULES: Solving for alpha.water
MULES: Solving for alpha.water
Phase-1 volume fraction = 0.500033  Min(alpha.water) = -1.37701e-10  Max(alpha.water) = 1
MULES: Solving for alpha.water
MULES: Solving for alpha.water
Phase-1 volume fraction = 0.500033  Min(alpha.water) = -1.36121e-10  Max(alpha.water) = 1
GAMG:  Solving for p_rgh, Initial residual = 0.00908655, Final residual = 8.20664e-05, No Iterations 2
time step continuity errors : sum local = 7.03744e-08, global = 4.91253e-11
GAMGPCG:  Solving for p_rgh, Initial residual = 0.00281573, Final residual = 3.02986e-10, No Iterations 5
time step continuity errors : sum local = 2.59663e-13, global = 3.21005e-16, cumulative = -1.41876e-12
ExecutionTime = 4349.09 s  ClockTime = 4390 s

Courant Number mean: 0.00308035 max: 0.495133
Interface Courant Number mean: 0.000243181 max: 0.495133
deltaT = 1.56154e-06
Time = 0.000879162s

MULES: Solving for alpha.water
MULES: Solving for alpha.water
Phase-1 volume fraction = 0.500033  Min(alpha.water) = -1.34561e-10  Max(alpha.water) = 1
MULES: Solving for alpha.water
MULES: Solving for alpha.water
Phase-1 volume fraction = 0.500033  Min(alpha.water) = -1.3302e-10  Max(alpha.water) = 1
GAMG:  Solving for p_rgh, Initial residual = 0.00964075, Final residual = 8.1599e-05, No Iterations 2
time step continuity errors : sum local = 7.13271e-08, global = 5.15881e-12
[adaptive_stop] t=0.000873002 normU=0.0395 maxDeltaAlpha=0.0237
GAMGPCG:  Solving for p_rgh, Initial residual = 0.0030509, Final residual = 3.84092e-10, No Iterations 5
time step continuity errors : sum local = 3.35342e-13, global = 7.05106e-17, cumulative = -1.41868e-12
ExecutionTime = 4363.89 s  ClockTime = 4405 s

Courant Number mean: 0.00311314 max: 0.495002
Interface Courant Number mean: 0.000245463 max: 0.495002
deltaT = 1.5773e-06
Time = 0.00088074s

MULES: Solving for alpha.water
MULES: Solving for alpha.water
Phase-1 volume fraction = 0.500033  Min(alpha.water) = -1.31502e-10  Max(alpha.water) = 1
MULES: Solving for alpha.water
MULES: Solving for alpha.water
Phase-1 volume fraction = 0.500033  Min(alpha.water) = -1.30001e-10  Max(alpha.water) = 1
GAMG:  Solving for p_rgh, Initial residual = 0.00962698, Final residual = 8.73622e-05, No Iterations 2
time step continuity errors : sum local = 7.77111e-08, global = 7.105e-11
GAMGPCG:  Solving for p_rgh, Initial residual = 0.00309514, Final residual = 3.31765e-10, No Iterations 5
time step continuity errors : sum local = 2.94772e-13, global = 2.88859e-16, cumulative = -1.4184e-12
ExecutionTime = 4378.77 s  ClockTime = 4420 s

Courant Number mean: 0.00314662 max: 0.495025
Interface Courant Number mean: 0.000248057 max: 0.495025
deltaT = 1.59315e-06
Time = 0.000882333s

MULES: Solving for alpha.water
MULES: Solving for alpha.water
Phase-1 volume fraction = 0.500033  Min(alpha.water) = -1.28526e-10  Max(alpha.water) = 1
MULES: Solving for alpha.water
MULES: Solving for alpha.water
Phase-1 volume fraction = 0.500033  Min(alpha.water) = -2.72807e-10  Max(alpha.water) = 1
GAMG:  Solving for p_rgh, Initial residual = 0.00953728, Final residual = 8.71223e-05, No Iterations 2
time step continuity errors : sum local = 7.88832e-08, global = -8.05729e-12
[adaptive_stop] t=0.00088074 normU=0.0384 maxDeltaAlpha=0.0228
GAMGPCG:  Solving for p_rgh, Initial residual = 0.00305773, Final residual = 3.57664e-10, No Iterations 5
time step continuity errors : sum local = 3.23616e-13, global = -1.29061e-16, cumulative = -1.41853e-12
ExecutionTime = 4393.65 s  ClockTime = 4435 s

Courant Number mean: 0.00318074 max: 0.495124
Interface Courant Number mean: 0.000250423 max: 0.495124
deltaT = 1.60884e-06
Time = 0.000883942s

MULES: Solving for alpha.water
MULES: Solving for alpha.water
Phase-1 volume fraction = 0.500033  Min(alpha.water) = -1.10094e-09  Max(alpha.water) = 1
MULES: Solving for alpha.water
MULES: Solving for alpha.water
Phase-1 volume fraction = 0.500033  Min(alpha.water) = -1.2422e-10  Max(alpha.water) = 1
GAMG:  Solving for p_rgh, Initial residual = 0.00933669, Final residual = 6.59014e-05, No Iterations 2
time step continuity errors : sum local = 6.06949e-08, global = 1.08446e-11
GAMGPCG:  Solving for p_rgh, Initial residual = 0.00287464, Final residual = 3.25592e-10, No Iterations 5
time step continuity errors : sum local = 2.99636e-13, global = -1.45137e-16, cumulative = -1.41867e-12
ExecutionTime = 4408.52 s  ClockTime = 4450 s

Courant Number mean: 0.00321494 max: 0.495299
Interface Courant Number mean: 0.000252761 max: 0.495299
deltaT = 1.6241e-06
Time = 0.000885566s

MULES: Solving for alpha.water
MULES: Solving for alpha.water
Phase-1 volume fraction = 0.500033  Min(alpha.water) = -1.22834e-10  Max(alpha.water) = 1
MULES: Solving for alpha.water
MULES: Solving for alpha.water
Phase-1 volume fraction = 0.500033  Min(alpha.water) = -1.21463e-10  Max(alpha.water) = 1
GAMG:  Solving for p_rgh, Initial residual = 0.00942535, Final residual = 8.06357e-05, No Iterations 2
time step continuity errors : sum local = 7.55081e-08, global = 4.49844e-11
[adaptive_stop] t=0.00088074 normU=0.0384 maxDeltaAlpha=0.0228
GAMGPCG:  Solving for p_rgh, Initial residual = 0.00304981, Final residual = 4.3009e-10, No Iterations 5
time step continuity errors : sum local = 4.02615e-13, global = -3.14717e-16, cumulative = -1.41898e-12
ExecutionTime = 4423.27 s  ClockTime = 4465 s

Courant Number mean: 0.00324849 max: 0.495535
Interface Courant Number mean: 0.000254945 max: 0.495535
deltaT = 1.63873e-06
Time = 0.000887205s

